<?xml version="1.0" encoding="UTF-8"?>

<!-- generated on 15/10/2018 10:44:40 by Netedit Version 0.32.0
<?xml version="1.0" encoding="UTF-8"?>

<configuration xmlns:xsi="http://www.w3.org/2001/XMLSchema-instance" xsi:noNamespaceSchemaLocation="http://sumo.dlr.de/xsd/netconvertConfiguration.xsd">

    <input>
        <sumo-net-file value="C:\Users\GUIX\Documents\Code\Python\traffic-lights\trone.net.xml"/>
    </input>

    <output>
        <output-file value="C:\Users\GUIX\Documents\Code\Python\traffic-lights\trone.net.xml"/>
    </output>

    <processing>
        <no-turnarounds value="true"/>
        <offset.disable-normalization value="true"/>
        <lefthand value="false"/>
        <junctions.corner-detail value="0"/>
        <rectangular-lane-cut value="false"/>
        <walkingareas value="false"/>
    </processing>

</configuration>
-->

<net version="0.27" xmlns:xsi="http://www.w3.org/2001/XMLSchema-instance" xsi:noNamespaceSchemaLocation="http://sumo.dlr.de/xsd/net_file.xsd">

    <location netOffset="-596405.72,-5631662.81" convBoundary="239.53,285.19,648.77,635.28" origBoundary="4.369053,50.828606,4.379372,50.835523" projParameter="+proj=utm +zone=31 +ellps=WGS84 +datum=WGS84 +units=m +no_defs"/>

    <type id="highway.bridleway" priority="1" numLanes="1" speed="2.78" allow="pedestrian" oneway="1" width="2.00"/>
    <type id="highway.bus_guideway" priority="1" numLanes="1" speed="8.33" allow="bus" oneway="1"/>
    <type id="highway.cycleway" priority="1" numLanes="1" speed="5.56" allow="bicycle" oneway="0" width="1.00"/>
    <type id="highway.footway" priority="1" numLanes="1" speed="2.78" allow="pedestrian" oneway="1" width="2.00"/>
    <type id="highway.ford" priority="1" numLanes="1" speed="2.78" allow="army" oneway="0"/>
    <type id="highway.living_street" priority="3" numLanes="1" speed="2.78" disallow="tram rail_urban rail rail_electric ship" oneway="0"/>
    <type id="highway.motorway" priority="13" numLanes="2" speed="44.44" allow="private emergency authority army vip passenger hov taxi bus coach delivery truck trailer motorcycle evehicle custom1 custom2" oneway="1"/>
    <type id="highway.motorway_link" priority="12" numLanes="1" speed="22.22" allow="private emergency authority army vip passenger hov taxi bus coach delivery truck trailer motorcycle evehicle custom1 custom2" oneway="1"/>
    <type id="highway.path" priority="1" numLanes="1" speed="2.78" allow="bicycle pedestrian" oneway="1" width="2.00"/>
    <type id="highway.pedestrian" priority="1" numLanes="1" speed="2.78" allow="pedestrian" oneway="1" width="2.00"/>
    <type id="highway.primary" priority="9" numLanes="2" speed="27.78" disallow="tram rail_urban rail rail_electric ship" oneway="0"/>
    <type id="highway.primary_link" priority="8" numLanes="1" speed="22.22" disallow="tram rail_urban rail rail_electric ship" oneway="0"/>
    <type id="highway.raceway" priority="14" numLanes="2" speed="83.33" allow="vip" oneway="0"/>
    <type id="highway.residential" priority="4" numLanes="1" speed="13.89" disallow="tram rail_urban rail rail_electric ship" oneway="0"/>
    <type id="highway.secondary" priority="7" numLanes="2" speed="27.78" disallow="tram rail_urban rail rail_electric ship" oneway="0"/>
    <type id="highway.secondary_link" priority="6" numLanes="1" speed="22.22" disallow="tram rail_urban rail rail_electric ship" oneway="0"/>
    <type id="highway.service" priority="2" numLanes="1" speed="5.56" allow="delivery bicycle pedestrian" oneway="0"/>
    <type id="highway.services" priority="1" numLanes="1" speed="8.33" disallow="tram rail_urban rail rail_electric ship" oneway="0"/>
    <type id="highway.stairs" priority="1" numLanes="1" speed="1.39" allow="pedestrian" oneway="1" width="2.00"/>
    <type id="highway.step" priority="1" numLanes="1" speed="1.39" allow="pedestrian" oneway="1" width="2.00"/>
    <type id="highway.steps" priority="1" numLanes="1" speed="1.39" allow="pedestrian" oneway="1" width="2.00"/>
    <type id="highway.tertiary" priority="6" numLanes="1" speed="22.22" disallow="tram rail_urban rail rail_electric ship" oneway="0"/>
    <type id="highway.tertiary_link" priority="5" numLanes="1" speed="22.22" disallow="tram rail_urban rail rail_electric ship" oneway="0"/>
    <type id="highway.track" priority="1" numLanes="1" speed="5.56" disallow="tram rail_urban rail rail_electric ship" oneway="0"/>
    <type id="highway.trunk" priority="11" numLanes="2" speed="27.78" disallow="tram rail_urban rail rail_electric bicycle pedestrian ship" oneway="0"/>
    <type id="highway.trunk_link" priority="10" numLanes="1" speed="22.22" disallow="tram rail_urban rail rail_electric bicycle pedestrian ship" oneway="0"/>
    <type id="highway.unclassified" priority="5" numLanes="1" speed="13.89" disallow="tram rail_urban rail rail_electric ship" oneway="0"/>
    <type id="highway.unsurfaced" priority="1" numLanes="1" speed="8.33" disallow="tram rail_urban rail rail_electric ship" oneway="0"/>
    <type id="railway.light_rail" priority="15" numLanes="1" speed="27.78" allow="rail_urban" oneway="1"/>
    <type id="railway.preserved" priority="15" numLanes="1" speed="27.78" allow="rail" oneway="1"/>
    <type id="railway.rail" priority="15" numLanes="1" speed="83.33" allow="rail rail_electric" oneway="1"/>
    <type id="railway.subway" priority="15" numLanes="1" speed="27.78" allow="rail_urban" oneway="1"/>
    <type id="railway.tram" priority="15" numLanes="1" speed="13.89" allow="tram" oneway="1"/>

    <edge id=":139655975_0" function="internal">
        <lane id=":139655975_0_0" index="0" disallow="tram rail_urban rail rail_electric ship" speed="13.89" length="7.69" shape="531.41,561.90 530.09,561.36 528.63,561.71 527.05,562.96 525.34,565.11"/>
    </edge>
    <edge id=":139655975_1" function="internal">
        <lane id=":139655975_1_0" index="0" disallow="tram rail_urban rail rail_electric ship" speed="13.89" length="6.46" shape="531.41,561.90 529.61,561.15 528.05,561.36 526.50,561.57 524.73,560.78"/>
        <lane id=":139655975_1_1" index="1" disallow="tram rail_urban rail rail_electric ship" speed="13.89" length="6.46" shape="531.41,561.90 526.82,558.23"/>
    </edge>
    <edge id=":139655975_3" function="internal">
        <lane id=":139655975_3_0" index="0" disallow="tram rail_urban rail rail_electric ship" speed="13.89" length="5.80" shape="528.92,555.68 533.45,559.30"/>
    </edge>
    <edge id=":139655975_4" function="internal">
        <lane id=":139655975_4_0" index="0" disallow="tram rail_urban rail rail_electric ship" speed="13.89" length="10.53" shape="528.92,555.68 529.38,556.84 528.94,558.79 527.60,561.55 525.34,565.11"/>
    </edge>
    <edge id=":165010519_0" function="internal">
        <lane id=":165010519_0_0" index="0" allow="rail rail_electric" speed="83.33" length="4.82" shape="637.92,292.62 639.28,292.01 640.20,292.10 640.68,292.88 640.72,294.37"/>
    </edge>
    <edge id=":26085301_0" function="internal">
        <lane id=":26085301_0_0" index="0" disallow="tram rail_urban rail rail_electric ship" speed="13.89" length="7.85" shape="467.66,434.83 462.70,440.83"/>
        <lane id=":26085301_0_1" index="1" disallow="tram rail_urban rail rail_electric ship" speed="13.89" length="7.85" shape="465.13,432.71 460.10,438.80"/>
    </edge>
    <edge id=":26085301_2" function="internal">
        <lane id=":26085301_2_0" index="0" disallow="tram rail_urban rail rail_electric ship" speed="13.89" length="7.55" shape="457.50,436.77 458.28,435.39 458.73,433.72 458.83,431.76 458.59,429.50"/>
    </edge>
    <edge id=":26085301_3" function="internal">
        <lane id=":26085301_3_0" index="0" disallow="tram rail_urban rail rail_electric ship" speed="13.89" length="8.02" shape="457.50,436.77 462.61,430.59"/>
    </edge>
    <edge id=":26085303_0" function="internal">
        <lane id=":26085303_0_0" index="0" disallow="tram rail_urban rail rail_electric ship" speed="13.89" length="7.70" shape="432.13,484.67 429.90,483.08 428.03,482.30 426.51,482.32 425.36,483.14"/>
    </edge>
    <edge id=":26085303_1" function="internal">
        <lane id=":26085303_1_0" index="0" disallow="tram rail_urban rail rail_electric ship" speed="13.89" length="16.38" shape="432.13,484.67 428.42,480.94 426.09,477.57 424.23,474.57 421.88,471.98"/>
    </edge>
    <edge id=":26085303_2" function="internal">
        <lane id=":26085303_2_0" index="0" disallow="tram rail_urban rail rail_electric ship" speed="13.89" length="18.45" shape="434.23,482.12 431.49,478.81 430.69,474.98 431.81,470.63 434.86,465.75"/>
    </edge>
    <edge id=":26085303_3" function="internal">
        <lane id=":26085303_3_0" index="0" disallow="tram rail_urban rail rail_electric ship" speed="13.89" length="11.11" shape="440.06,469.81 437.54,473.35 436.08,476.16 435.67,478.23 436.33,479.57"/>
    </edge>
    <edge id=":26085303_4" function="internal">
        <lane id=":26085303_4_0" index="0" disallow="tram rail_urban rail rail_electric ship" speed="13.89" length="19.90" shape="440.06,469.81 435.63,474.64 431.59,477.94 428.11,480.51 425.36,483.14"/>
    </edge>
    <edge id=":26085303_5" function="internal">
        <lane id=":26085303_5_0" index="0" disallow="tram rail_urban rail rail_electric ship" speed="13.89" length="18.37" shape="437.46,467.78 433.46,471.92 429.53,474.00 425.67,474.02 421.88,471.98"/>
    </edge>
    <edge id=":26085303_6" function="internal">
        <lane id=":26085303_6_0" index="0" disallow="tram rail_urban rail rail_electric ship" speed="13.89" length="7.62" shape="428.16,464.30 430.37,465.86 432.22,466.63 433.72,466.59 434.86,465.75"/>
    </edge>
    <edge id=":26085303_7" function="internal">
        <lane id=":26085303_7_0" index="0" disallow="tram rail_urban rail rail_electric ship" speed="13.89" length="16.40" shape="426.07,466.86 429.79,470.59 432.11,473.97 433.98,476.97 436.33,479.57"/>
    </edge>
    <edge id=":26085303_8" function="internal">
        <lane id=":26085303_8_0" index="0" disallow="tram rail_urban rail rail_electric ship" speed="13.89" length="15.68" shape="423.98,469.41 426.86,472.57 428.05,475.91 427.55,479.43 425.36,483.14"/>
    </edge>
    <edge id=":26085303_9" function="internal">
        <lane id=":26085303_9_0" index="0" disallow="tram rail_urban rail rail_electric ship" speed="13.89" length="7.96" shape="420.20,479.02 421.83,476.67 422.65,474.72 422.67,473.15 421.88,471.98"/>
    </edge>
    <edge id=":26085303_10" function="internal">
        <lane id=":26085303_10_0" index="0" disallow="tram rail_urban rail rail_electric ship" speed="13.89" length="19.83" shape="420.20,479.02 424.66,474.24 428.69,470.97 432.14,468.40 434.86,465.75"/>
    </edge>
    <edge id=":26085303_11" function="internal">
        <lane id=":26085303_11_0" index="0" disallow="tram rail_urban rail rail_electric ship" speed="13.89" length="4.54" shape="422.78,481.08 425.91,478.12 426.13,478.04"/>
    </edge>
    <edge id=":26085303_12" function="internal">
        <lane id=":26085303_12_0" index="0" speed="13.89" length="11.05" shape="426.13,478.04 429.21,476.88 432.68,477.36 436.33,479.57"/>
    </edge>
    <edge id=":26085304_0" function="internal">
        <lane id=":26085304_0_0" index="0" disallow="tram rail_urban rail rail_electric ship" speed="13.89" length="11.26" shape="395.29,520.44 388.50,529.42"/>
    </edge>
    <edge id=":26085304_1" function="internal">
        <lane id=":26085304_1_0" index="0" disallow="tram rail_urban rail rail_electric ship" speed="13.89" length="13.11" shape="385.70,527.64 387.64,524.55 388.22,521.58 387.44,518.72 385.31,515.98"/>
    </edge>
    <edge id=":26085304_2" function="internal">
        <lane id=":26085304_2_0" index="0" disallow="tram rail_urban rail rail_electric ship" speed="13.89" length="12.05" shape="385.70,527.64 387.20,524.90 387.68,522.26 388.30,519.46 390.21,516.22"/>
        <lane id=":26085304_2_1" index="1" disallow="tram rail_urban rail rail_electric ship" speed="13.89" length="12.05" shape="385.70,527.64 392.75,518.33"/>
    </edge>
    <edge id=":26197276_0" function="internal">
        <lane id=":26197276_0_0" index="0" disallow="tram rail_urban rail rail_electric ship" speed="13.89" length="5.54" shape="368.76,365.00 368.04,363.56 367.11,362.88 365.96,362.98 364.59,363.85"/>
    </edge>
    <edge id=":26197276_1" function="internal">
        <lane id=":26197276_1_0" index="0" disallow="tram rail_urban rail rail_electric ship" speed="13.89" length="10.51" shape="368.76,365.00 365.24,355.10"/>
    </edge>
    <edge id=":26197276_2" function="internal">
        <lane id=":26197276_2_0" index="0" disallow="tram rail_urban rail rail_electric ship" speed="13.89" length="11.33" shape="368.76,365.00 368.32,362.37 368.80,359.84 370.21,357.42 372.53,355.10"/>
    </edge>
    <edge id=":26197276_3" function="internal">
        <lane id=":26197276_3_0" index="0" disallow="tram rail_urban rail rail_electric ship" speed="13.89" length="7.30" shape="374.62,357.66 373.02,359.21 372.04,360.77 371.67,362.35 371.90,363.94"/>
    </edge>
    <edge id=":26197276_4" function="internal">
        <lane id=":26197276_4_0" index="0" disallow="tram rail_urban rail rail_electric ship" speed="13.89" length="11.81" shape="374.62,357.66 371.95,359.50 369.58,360.72 367.22,361.96 364.59,363.85"/>
    </edge>
    <edge id=":26197276_5" function="internal">
        <lane id=":26197276_5_0" index="0" disallow="tram rail_urban rail rail_electric ship" speed="13.89" length="12.18" shape="374.62,357.66 371.60,359.47 369.04,359.65 366.92,358.19 365.24,355.10"/>
    </edge>
    <edge id=":26197276_6" function="internal">
        <lane id=":26197276_6_0" index="0" disallow="tram rail_urban rail rail_electric ship" speed="13.89" length="5.45" shape="368.34,353.95 369.09,355.34 370.04,355.99 371.18,355.91 372.53,355.10"/>
    </edge>
    <edge id=":26197276_7" function="internal">
        <lane id=":26197276_7_0" index="0" disallow="tram rail_urban rail rail_electric ship" speed="13.89" length="10.60" shape="368.34,353.95 371.90,363.94"/>
    </edge>
    <edge id=":26197276_8" function="internal">
        <lane id=":26197276_8_0" index="0" disallow="tram rail_urban rail rail_electric ship" speed="13.89" length="11.31" shape="368.34,353.95 368.81,356.48 368.35,358.98 366.94,361.43 364.59,363.85"/>
    </edge>
    <edge id=":26197339_0" function="internal">
        <lane id=":26197339_0_0" index="0" disallow="tram rail_urban rail rail_electric ship" speed="13.89" length="4.89" shape="371.79,503.11 370.71,502.33 369.62,502.03 368.51,502.22 367.39,502.88"/>
    </edge>
    <edge id=":26197339_1" function="internal">
        <lane id=":26197339_1_0" index="0" disallow="tram rail_urban rail rail_electric ship" speed="13.89" length="5.84" shape="371.49,498.75 370.40,500.10 369.61,500.99 368.73,501.79 367.39,502.88"/>
    </edge>
    <edge id=":gneJ10_0" function="internal">
        <lane id=":gneJ10_0_0" index="0" disallow="tram rail_urban rail rail_electric ship" speed="13.89" length="4.89" shape="406.55,459.44 405.39,458.73 404.30,458.56 403.27,458.93 402.30,459.84"/>
    </edge>
    <edge id=":gneJ10_1" function="internal">
        <lane id=":gneJ10_1_0" index="0" disallow="tram rail_urban rail rail_electric ship" speed="13.89" length="5.92" shape="406.55,459.44 402.02,455.62"/>
    </edge>
    <edge id=":gneJ15_0" function="internal">
        <lane id=":gneJ15_0_0" index="0" disallow="tram rail_urban rail rail_electric ship" speed="13.89" length="0.30" shape="392.95,437.31 392.86,437.02"/>
    </edge>
    <edge id=":gneJ18_0" function="internal">
        <lane id=":gneJ18_0_0" index="0" disallow="tram rail_urban rail rail_electric ship" speed="13.89" length="0.73" shape="398.09,452.32 397.93,452.18 397.82,452.07 397.75,451.94 397.65,451.75"/>
    </edge>
    <edge id=":gneJ8_0" function="internal">
        <lane id=":gneJ8_0_0" index="0" disallow="tram rail_urban rail rail_electric ship" speed="13.89" length="5.46" shape="402.09,442.20 402.67,443.04 403.11,443.58 403.61,444.07 404.40,444.73"/>
        <lane id=":gneJ8_0_1" index="1" disallow="tram rail_urban rail rail_electric ship" speed="13.89" length="5.46" shape="402.09,442.20 402.30,447.27"/>
        <lane id=":gneJ8_0_2" index="2" disallow="tram rail_urban rail rail_electric ship" speed="13.89" length="5.46" shape="402.09,442.20 400.20,449.82"/>
    </edge>

    <edge id="-14362916#1" from="139655975" to="26085303" priority="6" type="highway.tertiary">
        <lane id="-14362916#1_0" index="0" disallow="tram rail_urban rail rail_electric ship" speed="13.89" length="119.86" shape="524.73,560.78 432.13,484.67"/>
        <lane id="-14362916#1_1" index="1" disallow="tram rail_urban rail rail_electric ship" speed="13.89" length="119.86" shape="526.82,558.23 434.23,482.12"/>
    </edge>
    <edge id="-16233798#1" from="2441273502" to="139655975" priority="6" type="highway.tertiary" shape="624.19,632.35 619.17,628.46 529.82,558.56">
        <lane id="-16233798#1_0" index="0" disallow="tram rail_urban rail rail_electric ship" speed="13.89" length="116.49" shape="623.18,633.65 618.16,629.76 531.41,561.90"/>
    </edge>
    <edge id="-17670100" from="26197276" to="26197260" priority="7" type="highway.secondary">
        <lane id="-17670100_0" index="0" disallow="tram rail_urban rail rail_electric ship" speed="13.89" length="73.94" shape="365.24,355.10 339.55,285.76"/>
    </edge>
    <edge id="-231940830#1" from="26085304" to="1235548240" priority="7" type="highway.secondary" shape="389.63,524.67 387.40,528.17 301.39,631.26">
        <lane id="-231940830#1_0" index="0" disallow="tram rail_urban rail rail_electric ship" speed="13.89" length="134.00" shape="388.50,529.42 302.66,632.32"/>
    </edge>
    <edge id="-23771306#2" from="165010519" to="4118524041" priority="15" type="railway.rail" shape="639.32,293.50 507.36,505.88 434.61,633.32">
        <lane id="-23771306#2_0" index="0" allow="rail rail_electric" speed="83.33" length="396.72" shape="640.72,294.37 508.78,506.72 436.04,634.14"/>
    </edge>
    <edge id="-450925440#0" from="26197276" to="26197274" priority="4" type="highway.residential">
        <lane id="-450925440#0_0" index="0" disallow="tram rail_urban rail rail_electric ship" speed="13.89" length="35.25" shape="372.53,355.10 399.87,332.84"/>
    </edge>
    <edge id="-510492454#0" from="26085303" to="26085304" priority="7" type="highway.secondary" shape="429.12,475.78 402.21,509.51 389.63,524.67">
        <lane id="-510492454#0_0" index="0" disallow="tram rail_urban rail rail_electric ship" speed="13.89" length="47.91" shape="425.36,483.14 403.49,510.55 395.29,520.44"/>
    </edge>
    <edge id="-523773486.0.0.0" from="26085303" to="gneJ10" priority="7" type="highway.secondary">
        <lane id="-523773486.0.0.0_0" index="0" disallow="tram rail_urban rail rail_electric ship" speed="13.89" length="19.81" shape="421.88,471.98 406.55,459.44"/>
    </edge>
    <edge id="-523773486.0.13.0.0.0" from="gneJ10" to="gneJ18" priority="7" type="highway.secondary" shape="405.19,456.19 401.71,453.16 399.15,451.05">
        <lane id="-523773486.0.13.0.0.0_0" index="0" disallow="tram rail_urban rail rail_electric ship" speed="13.89" length="5.14" shape="402.02,455.62 400.64,454.42 398.09,452.32"/>
    </edge>
    <edge id="-523773486.0.13.0.0.7" from="gneJ18" to="gneJ15" priority="7" type="highway.secondary" shape="399.15,451.05 398.42,449.45 397.69,447.28 396.94,444.72 396.16,441.97 395.34,439.21 394.47,436.64">
        <lane id="-523773486.0.13.0.0.7_0" index="0" disallow="tram rail_urban rail rail_electric ship" speed="13.89" length="15.20" shape="397.65,451.75 396.88,450.06 396.12,447.78 395.35,445.18 394.58,442.43 393.77,439.71 392.95,437.31"/>
    </edge>
    <edge id="-523773486.0.13.0.17" from="gneJ15" to="26197276" priority="7" type="highway.secondary">
        <lane id="-523773486.0.13.0.17_0" index="0" disallow="tram rail_urban rail rail_electric ship" speed="13.89" length="75.95" shape="392.86,437.02 368.76,365.00"/>
    </edge>
    <edge id="-524150338" from="26085301" to="26085303" priority="7" type="highway.secondary">
        <lane id="-524150338_0" index="0" disallow="tram rail_urban rail rail_electric ship" speed="13.89" length="36.77" shape="462.70,440.83 440.06,469.81"/>
        <lane id="-524150338_1" index="1" disallow="tram rail_urban rail rail_electric ship" speed="13.89" length="36.77" shape="460.10,438.80 437.46,467.78"/>
    </edge>
    <edge id="-8382447#1" from="26085299" to="26085301" priority="7" type="highway.secondary">
        <lane id="-8382447#1_0" index="0" disallow="tram rail_urban rail rail_electric ship" speed="13.89" length="185.29" shape="586.75,292.88 467.66,434.83"/>
        <lane id="-8382447#1_1" index="1" disallow="tram rail_urban rail rail_electric ship" speed="13.89" length="185.29" shape="584.22,290.76 465.13,432.71"/>
    </edge>
    <edge id="14362915" from="139655975" to="139655943" priority="4" type="highway.residential" spreadType="center">
        <lane id="14362915_0" index="0" disallow="tram rail_urban rail rail_electric ship" speed="13.89" length="83.12" shape="525.34,565.11 478.43,633.73"/>
    </edge>
    <edge id="14362916#1" from="26085303" to="139655975" priority="6" type="highway.tertiary">
        <lane id="14362916#1_0" index="0" disallow="tram rail_urban rail rail_electric ship" speed="13.89" length="119.86" shape="436.33,479.57 528.92,555.68"/>
    </edge>
    <edge id="16233798#1" from="139655975" to="2441273502" priority="6" type="highway.tertiary" shape="529.82,558.56 619.17,628.46 624.19,632.35">
        <lane id="16233798#1_0" index="0" disallow="tram rail_urban rail rail_electric ship" speed="13.89" length="116.47" shape="533.45,559.30 620.19,627.16 625.20,631.05"/>
    </edge>
    <edge id="17670100" from="26197260" to="26197276" priority="4" type="highway.secondary">
        <lane id="17670100_0" index="0" disallow="tram rail_urban rail rail_electric ship" speed="13.89" length="73.94" shape="342.65,284.62 368.34,353.95"/>
    </edge>
    <edge id="231940830#1" from="1235548240" to="26085304" priority="7" type="highway.secondary" shape="301.39,631.26 387.40,528.17 389.63,524.67">
        <lane id="231940830#1_0" index="0" disallow="tram rail_urban rail rail_electric ship" speed="13.89" length="133.58" shape="300.12,630.20 385.70,527.64"/>
    </edge>
    <edge id="23771306#2" from="4118524041" to="165010519" priority="15" type="railway.rail" shape="434.61,633.32 506.70,504.33 639.32,293.50">
        <lane id="23771306#2_0" index="0" allow="rail rail_electric" speed="83.33" length="396.93" shape="433.17,632.52 505.28,503.49 637.92,292.62"/>
    </edge>
    <edge id="244422544#0.19.0.0.0" from="26197276" to="gneJ8" priority="7" type="highway.secondary" shape="368.89,360.19 393.40,432.39 405.16,449.63">
        <lane id="244422544#0.19.0.0.0_0" index="0" disallow="tram rail_urban rail rail_electric ship" speed="13.89" length="84.28" shape="371.90,363.94 394.89,431.65 402.09,442.20"/>
    </edge>
    <edge id="294653794#1.187" from="gneJ0" to="2982448589" priority="15" type="railway.rail" spreadType="center" shape="438.60,635.28 512.25,507.44 646.03,295.22">
        <lane id="294653794#1.187_0" index="0" allow="rail rail_electric" speed="13.89" length="398.41" shape="438.60,635.28 512.25,507.44 646.03,295.22"/>
    </edge>
    <edge id="450925440#0" from="26197274" to="26197276" priority="4" type="highway.residential">
        <lane id="450925440#0_0" index="0" disallow="tram rail_urban rail rail_electric ship" speed="13.89" length="35.25" shape="401.95,335.40 374.62,357.66"/>
    </edge>
    <edge id="4730637#0" from="26197276" to="26197340" priority="4" type="highway.residential" spreadType="center">
        <lane id="4730637#0_0" index="0" disallow="tram rail_urban rail rail_electric ship" speed="13.89" length="64.36" shape="364.59,363.85 315.58,405.56"/>
    </edge>
    <edge id="506796469.173" from="gneJ3" to="257555469" priority="15" type="railway.rail" spreadType="center" shape="442.56,634.27 515.80,510.11 648.77,299.09">
        <lane id="506796469.173_0" index="0" allow="rail rail_electric" speed="83.33" length="393.57" shape="442.56,634.27 515.80,510.11 648.77,299.09"/>
    </edge>
    <edge id="510492454#0" from="26085304" to="26085303" priority="7" type="highway.secondary" shape="389.63,524.67 402.21,509.51 429.12,475.78">
        <lane id="510492454#0_0" index="0" disallow="tram rail_urban rail rail_electric ship" speed="13.89" length="47.82" shape="390.21,516.22 398.37,506.39 420.20,479.02"/>
        <lane id="510492454#0_1" index="1" disallow="tram rail_urban rail rail_electric ship" speed="13.89" length="47.82" shape="392.75,518.33 400.93,508.47 422.78,481.08"/>
    </edge>
    <edge id="510492456" from="26197339" to="26197377" priority="4" type="highway.residential" spreadType="center" shape="369.65,501.07 259.18,589.66 239.53,605.88">
        <lane id="510492456_0" index="0" disallow="tram rail_urban rail rail_electric ship" speed="13.89" length="164.18" shape="367.39,502.88 259.18,589.66 239.53,605.88"/>
    </edge>
    <edge id="523773486.24.12" from="gneJ8" to="26085303" priority="7" type="highway.secondary" spreadType="center" shape="405.16,449.63 432.27,471.96">
        <lane id="523773486.24.12_0" index="0" disallow="tram rail_urban rail rail_electric ship" speed="13.89" length="30.80" shape="404.40,444.73 428.16,464.30"/>
        <lane id="523773486.24.12_1" index="1" disallow="tram rail_urban rail rail_electric ship" speed="13.89" length="30.80" shape="402.30,447.27 426.07,466.86"/>
        <lane id="523773486.24.12_2" index="2" disallow="tram rail_urban rail rail_electric ship" speed="13.89" length="30.80" shape="400.20,449.82 423.98,469.41"/>
    </edge>
    <edge id="524150338" from="26085303" to="26085301" priority="7" type="highway.secondary">
        <lane id="524150338_0" index="0" disallow="tram rail_urban rail rail_electric ship" speed="13.89" length="36.77" shape="434.86,465.75 457.50,436.77"/>
    </edge>
    <edge id="524151750" from="26085301" to="26197267" priority="4" type="highway.residential" spreadType="center" shape="459.79,436.51 458.09,426.62 457.64,415.79 464.36,336.04">
        <lane id="524151750_0" index="0" disallow="tram rail_urban rail rail_electric ship" speed="13.89" length="93.79" shape="458.59,429.50 458.09,426.62 457.64,415.79 464.36,336.04"/>
    </edge>
    <edge id="552794577#0.14.18" from="gneJ10" to="26197339" priority="4" type="highway.residential" spreadType="center">
        <lane id="552794577#0.14.18_0" index="0" disallow="tram rail_urban rail rail_electric ship" speed="13.89" length="49.63" shape="402.30,459.84 371.49,498.75"/>
    </edge>
    <edge id="8382447#1" from="26085301" to="26085299" priority="7" type="highway.secondary">
        <lane id="8382447#1_0" index="0" disallow="tram rail_urban rail rail_electric ship" speed="13.89" length="185.29" shape="462.61,430.59 581.70,288.64"/>
    </edge>
    <edge id="8384907#0" from="26085304" to="26197339" priority="4" type="highway.residential" spreadType="center" shape="389.63,524.67 386.53,517.15 369.65,501.07">
        <lane id="8384907#0_0" index="0" disallow="tram rail_urban rail rail_electric ship" speed="13.89" length="18.66" shape="385.31,515.98 371.79,503.11"/>
    </edge>

    <tlLogic id="26085303" type="static" programID="0" offset="0">
        <phase duration="60" state="GGrrrrGGrrrr"/>
        <phase duration="3" state="YYrrrrYYrrrr"/>
        <phase duration="60" state="rrGrrrrrGrrr"/>
        <phase duration="3" state="rrYrrrrrYrrr"/>
        <phase duration="60" state="rrrGGrrrrGGr"/>
        <phase duration="3" state="rrrYYrrrrYYr"/>
        <phase duration="60" state="rrrrrGrrrrrG"/>
        <phase duration="3" state="rrrrrYrrrrrY"/>
    </tlLogic>

    <junction id="1235548240" type="dead_end" x="301.39" y="631.26" incLanes="-231940830#1_0" intLanes="" shape="301.35,631.23 303.89,633.34 301.43,631.29"/>
    <junction id="139655943" type="dead_end" x="478.43" y="633.73" incLanes="14362915_0" intLanes="" shape="479.75,634.63 477.11,632.83"/>
    <junction id="139655975" type="right_before_left" x="529.82" y="558.56" incLanes="-16233798#1_0 14362916#1_0" intLanes=":139655975_0_0 :139655975_1_0 :139655975_1_1 :139655975_3_0 :139655975_4_0" shape="530.43,563.16 534.43,558.04 529.93,554.45 523.71,562.02 524.02,564.21 526.66,566.01">
        <request index="0" response="00000" foes="10000" cont="0"/>
        <request index="1" response="00000" foes="10000" cont="0"/>
        <request index="2" response="00000" foes="10000" cont="0"/>
        <request index="3" response="00000" foes="00000" cont="0"/>
        <request index="4" response="00111" foes="00111" cont="0"/>
    </junction>
    <junction id="165010519" type="priority" x="639.32" y="293.50" incLanes="23771306#2_0" intLanes=":165010519_0_0" shape="639.36,293.53 642.08,295.22 636.57,291.77">
        <request index="0" response="0" foes="0" cont="0"/>
    </junction>
    <junction id="2441273502" type="dead_end" x="624.19" y="632.35" incLanes="16233798#1_0" intLanes="" shape="624.16,632.39 626.18,629.78 624.22,632.31"/>
    <junction id="257555469" type="dead_end" x="648.77" y="299.09" incLanes="506796469.173_0" intLanes="" shape="647.42,298.24 650.12,299.94"/>
    <junction id="26085299" type="dead_end" x="582.96" y="289.70" incLanes="8382447#1_0" intLanes="" shape="583.00,289.73 580.47,287.61 582.92,289.67"/>
    <junction id="26085301" type="right_before_left" x="459.79" y="436.51" incLanes="-8382447#1_0 -8382447#1_1 524150338_0" intLanes=":26085301_0_0 :26085301_0_1 :26085301_2_0 :26085301_3_0" shape="468.89,435.86 461.38,429.56 460.16,429.23 457.01,429.77 456.23,435.78 463.96,441.81">
        <request index="0" response="0000" foes="0000" cont="0"/>
        <request index="1" response="0000" foes="0000" cont="0"/>
        <request index="2" response="0000" foes="0000" cont="0"/>
        <request index="3" response="0000" foes="0000" cont="0"/>
    </junction>