<configuration xmlns:xsi="http://www.w3.org/2001/XMLSchema-instance" xsi:noNamespaceSchemaLocation="http://sumo.sf.net/xsd/sumoConfiguration.xsd">

    <input>
        <net-file value="trone.net.xml"/>
        <route-files value="trone.rou.xml"/>
        <!--<additional-files value="trone.poly.xml"/>-->
		<gui-settings-file value="gui-settings.cfg"/>
		<waiting-time-memory value="3600"/>
    </input>

    <time>
        <begin value="0"/>
        <end value="600"/>
        <step-length value=".1"/>
    </time>

	<report>
		<no-step-log value="true"/>
	</report>

</configuration>