<?xml version="1.0" encoding="UTF-8"?>

<!-- generated on 10/16/18 13:00:56 by SUMO duarouter Version 0.32.0
<?xml version="1.0" encoding="UTF-8"?>

<configuration xmlns:xsi="http://www.w3.org/2001/XMLSchema-instance" xsi:noNamespaceSchemaLocation="http://sumo.dlr.de/xsd/duarouterConfiguration.xsd">

    <input>
        <net-file value="trone.net.xml"/>
        <route-files value="trips.trips.xml"/>
    </input>

    <output>
        <output-file value="trone.rou.xml"/>
        <alternatives-output value="trone.rou.alt.xml"/>
    </output>

    <processing>
        <ignore-errors value="true"/>
    </processing>

    <time>
        <begin value="0.0"/>
        <end value="600.0"/>
    </time>

    <report>
        <no-warnings value="true"/>
        <no-step-log value="true"/>
    </report>

</configuration>
-->

<routes xmlns:xsi="http://www.w3.org/2001/XMLSchema-instance" xsi:noNamespaceSchemaLocation="http://sumo.dlr.de/xsd/routes_file.xsd">
    <vehicle id="0" depart="0.00" departSpeed="max">
        <route edges="-16233798#1 -14362916#1 -510492454#0 -231940830#1"/>
    </vehicle>
    <vehicle id="3" depart="3.00" departSpeed="max">
        <route edges="231940830#1 510492454#0 -523773486.0.0.0 -523773486.0.13.0.0.0 -523773486.0.13.0.0.7 -523773486.0.13.0.17 -450925440#0"/>
    </vehicle>
    <vehicle id="4" depart="4.00" departSpeed="max">
        <route edges="231940830#1 510492454#0 524150338 8382447#1"/>
    </vehicle>
    <vehicle id="5" depart="5.00" departSpeed="max">
        <route edges="231940830#1 510492454#0 524150338 8382447#1"/>
    </vehicle>
    <vehicle id="6" depart="6.00" departSpeed="max">
        <route edges="-8382447#1 -524150338 -523773486.0.0.0 -523773486.0.13.0.0.0 -523773486.0.13.0.0.7 -523773486.0.13.0.17 4730637#0"/>
    </vehicle>
    <vehicle id="7" depart="7.00" departSpeed="max">
        <route edges="231940830#1 510492454#0 -523773486.0.0.0 -523773486.0.13.0.0.0 -523773486.0.13.0.0.7 -523773486.0.13.0.17 -450925440#0"/>
    </vehicle>
    <vehicle id="8" depart="8.00" departSpeed="max">
        <route edges="17670100 -450925440#0"/>
    </vehicle>
    <vehicle id="10" depart="10.00" departSpeed="max">
        <route edges="17670100 244422544#0.19.0.0.0 523773486.24.12 14362916#1 16233798#1"/>
    </vehicle>
    <vehicle id="12" depart="12.00" departSpeed="max">
        <route edges="-8382447#1 -524150338 -523773486.0.0.0 552794577#0.14.18 510492456"/>
    </vehicle>
    <vehicle id="13" depart="13.00" departSpeed="max">
        <route edges="450925440#0 244422544#0.19.0.0.0 523773486.24.12 -510492454#0 -231940830#1"/>
    </vehicle>
    <vehicle id="14" depart="14.00" departSpeed="max">
        <route edges="231940830#1 510492454#0 -523773486.0.0.0 -523773486.0.13.0.0.0 -523773486.0.13.0.0.7 -523773486.0.13.0.17 4730637#0"/>
    </vehicle>
    <vehicle id="15" depart="15.00" departSpeed="max">
        <route edges="-16233798#1 -14362916#1 -523773486.0.0.0 552794577#0.14.18 510492456"/>
    </vehicle>
    <vehicle id="16" depart="16.00" departSpeed="max">
        <route edges="17670100 -450925440#0"/>
    </vehicle>
    <vehicle id="17" depart="17.00" departSpeed="max">
        <route edges="-16233798#1 -14362916#1 524150338 8382447#1"/>
    </vehicle>
    <vehicle id="19" depart="19.00" departSpeed="max">
        <route edges="231940830#1 510492454#0 14362916#1 16233798#1"/>
    </vehicle>
    <vehicle id="20" depart="20.00" departSpeed="max">
        <route edges="450925440#0 4730637#0"/>
    </vehicle>
    <vehicle id="21" depart="21.00" departSpeed="max">
        <route edges="231940830#1 510492454#0 -523773486.0.0.0 -523773486.0.13.0.0.0 -523773486.0.13.0.0.7 -523773486.0.13.0.17 4730637#0"/>
    </vehicle>
    <vehicle id="22" depart="22.00" departSpeed="max">
        <route edges="231940830#1 510492454#0 -523773486.0.0.0 -523773486.0.13.0.0.0 -523773486.0.13.0.0.7 -523773486.0.13.0.17 4730637#0"/>
    </vehicle>
    <vehicle id="24" depart="24.00" departSpeed="max">
        <route edges="-8382447#1 -524150338 14362916#1 16233798#1"/>
    </vehicle>
    <vehicle id="25" depart="25.00" departSpeed="max">
        <route edges="-8382447#1 -524150338 -523773486.0.0.0 -523773486.0.13.0.0.0 -523773486.0.13.0.0.7 -523773486.0.13.0.17 -450925440#0"/>
    </vehicle>
    <vehicle id="26" depart="26.00" departSpeed="max">
        <route edges="-16233798#1 -14362916#1 -523773486.0.0.0 552794577#0.14.18 510492456"/>
    </vehicle>
    <vehicle id="27" depart="27.00" departSpeed="max">
        <route edges="450925440#0 244422544#0.19.0.0.0 523773486.24.12 524150338 8382447#1"/>
    </vehicle>
    <vehicle id="28" depart="28.00" departSpeed="max">
        <route edges="450925440#0 244422544#0.19.0.0.0 523773486.24.12 14362916#1 14362915"/>
    </vehicle>
    <vehicle id="29" depart="29.00" departSpeed="max">
        <route edges="17670100 244422544#0.19.0.0.0 523773486.24.12 14362916#1 14362915"/>
    </vehicle>
    <vehicle id="32" depart="32.00" departSpeed="max">
        <route edges="450925440#0 244422544#0.19.0.0.0 523773486.24.12 -510492454#0 -231940830#1"/>
    </vehicle>
    <vehicle id="33" depart="33.00" departSpeed="max">
        <route edges="17670100 244422544#0.19.0.0.0 523773486.24.12 14362916#1 14362915"/>
    </vehicle>
    <vehicle id="34" depart="34.00" departSpeed="max">
        <route edges="-8382447#1 -524150338 14362916#1 14362915"/>
    </vehicle>
    <vehicle id="35" depart="35.00" departSpeed="max">
        <route edges="231940830#1 510492454#0 14362916#1 16233798#1"/>
    </vehicle>
    <vehicle id="36" depart="36.00" departSpeed="max">
        <route edges="231940830#1 8384907#0 510492456"/>
    </vehicle>
    <vehicle id="37" depart="37.00" departSpeed="max">
        <route edges="17670100 -450925440#0"/>
    </vehicle>
    <vehicle id="38" depart="38.00" departSpeed="max">
        <route edges="-16233798#1 -14362916#1 -523773486.0.0.0 -523773486.0.13.0.0.0 -523773486.0.13.0.0.7 -523773486.0.13.0.17 -450925440#0"/>
    </vehicle>
    <vehicle id="39" depart="39.00" departSpeed="max">
        <route edges="17670100 244422544#0.19.0.0.0 523773486.24.12 524150338 8382447#1"/>
    </vehicle>
    <vehicle id="40" depart="40.00" departSpeed="max">
        <route edges="17670100 244422544#0.19.0.0.0 523773486.24.12 524150338 8382447#1"/>
    </vehicle>
    <vehicle id="41" depart="41.00" departSpeed="max">
        <route edges="17670100 244422544#0.19.0.0.0 523773486.24.12 14362916#1 16233798#1"/>
    </vehicle>
    <vehicle id="42" depart="42.00" departSpeed="max">
        <route edges="231940830#1 8384907#0 510492456"/>
    </vehicle>
    <vehicle id="44" depart="44.00" departSpeed="max">
        <route edges="-16233798#1 -14362916#1 -523773486.0.0.0 -523773486.0.13.0.0.0 -523773486.0.13.0.0.7 -523773486.0.13.0.17 4730637#0"/>
    </vehicle>
    <vehicle id="45" depart="45.00" departSpeed="max">
        <route edges="-16233798#1 14362915"/>
    </vehicle>
    <vehicle id="46" depart="46.00" departSpeed="max">
        <route edges="-16233798#1 14362915"/>
    </vehicle>
    <vehicle id="47" depart="47.00" departSpeed="max">
        <route edges="17670100 4730637#0"/>
    </vehicle>
    <vehicle id="48" depart="48.00" departSpeed="max">
        <route edges="231940830#1 510492454#0 14362916#1 16233798#1"/>
    </vehicle>
    <vehicle id="49" depart="49.00" departSpeed="max">
        <route edges="231940830#1 8384907#0 510492456"/>
    </vehicle>
    <vehicle id="50" depart="50.00" departSpeed="max">
        <route edges="231940830#1 510492454#0 14362916#1 16233798#1"/>
    </vehicle>
    <vehicle id="51" depart="51.00" departSpeed="max">
        <route edges="450925440#0 244422544#0.19.0.0.0 523773486.24.12 14362916#1 14362915"/>
    </vehicle>
    <vehicle id="52" depart="52.00" departSpeed="max">
        <route edges="-8382447#1 -524150338 14362916#1 14362915"/>
    </vehicle>
    <vehicle id="53" depart="53.00" departSpeed="max">
        <route edges="-8382447#1 -524150338 -510492454#0 -231940830#1"/>
    </vehicle>
    <vehicle id="54" depart="54.00" departSpeed="max">
        <route edges="-16233798#1 -14362916#1 -510492454#0 -231940830#1"/>
    </vehicle>
    <vehicle id="55" depart="55.00" departSpeed="max">
        <route edges="450925440#0 244422544#0.19.0.0.0 523773486.24.12 14362916#1 16233798#1"/>
    </vehicle>
    <vehicle id="56" depart="56.00" departSpeed="max">
        <route edges="231940830#1 510492454#0 14362916#1 16233798#1"/>
    </vehicle>
    <vehicle id="57" depart="57.00" departSpeed="max">
        <route edges="-16233798#1 -14362916#1 -523773486.0.0.0 -523773486.0.13.0.0.0 -523773486.0.13.0.0.7 -523773486.0.13.0.17 -450925440#0"/>
    </vehicle>
    <vehicle id="58" depart="58.00" departSpeed="max">
        <route edges="-16233798#1 -14362916#1 -523773486.0.0.0 -523773486.0.13.0.0.0 -523773486.0.13.0.0.7 -523773486.0.13.0.17 -450925440#0"/>
    </vehicle>
    <vehicle id="60" depart="60.00" departSpeed="max">
        <route edges="231940830#1 8384907#0 510492456"/>
    </vehicle>
    <vehicle id="62" depart="62.00" departSpeed="max">
        <route edges="-16233798#1 -14362916#1 -523773486.0.0.0 552794577#0.14.18 510492456"/>
    </vehicle>
    <vehicle id="63" depart="63.00" departSpeed="max">
        <route edges="231940830#1 510492454#0 -523773486.0.0.0 -523773486.0.13.0.0.0 -523773486.0.13.0.0.7 -523773486.0.13.0.17 -450925440#0"/>
    </vehicle>
    <vehicle id="64" depart="64.00" departSpeed="max">
        <route edges="-16233798#1 -14362916#1 -523773486.0.0.0 -523773486.0.13.0.0.0 -523773486.0.13.0.0.7 -523773486.0.13.0.17 -450925440#0"/>
    </vehicle>
    <vehicle id="65" depart="65.00" departSpeed="max">
        <route edges="17670100 4730637#0"/>
    </vehicle>
    <vehicle id="66" depart="66.00" departSpeed="max">
        <route edges="231940830#1 510492454#0 -523773486.0.0.0 -523773486.0.13.0.0.0 -523773486.0.13.0.0.7 -523773486.0.13.0.17 -450925440#0"/>
    </vehicle>
    <vehicle id="71" depart="71.00" departSpeed="max">
        <route edges="17670100 244422544#0.19.0.0.0 523773486.24.12 524150338 8382447#1"/>
    </vehicle>
    <vehicle id="72" depart="72.00" departSpeed="max">
        <route edges="450925440#0 244422544#0.19.0.0.0 523773486.24.12 14362916#1 14362915"/>
    </vehicle>
    <vehicle id="73" depart="73.00" departSpeed="max">
        <route edges="231940830#1 510492454#0 14362916#1 14362915"/>
    </vehicle>
    <vehicle id="74" depart="74.00" departSpeed="max">
        <route edges="-16233798#1 -14362916#1 -523773486.0.0.0 -523773486.0.13.0.0.0 -523773486.0.13.0.0.7 -523773486.0.13.0.17 -450925440#0"/>
    </vehicle>
    <vehicle id="77" depart="77.00" departSpeed="max">
        <route edges="450925440#0 244422544#0.19.0.0.0 523773486.24.12 -510492454#0 -231940830#1"/>
    </vehicle>
    <vehicle id="78" depart="78.00" departSpeed="max">
        <route edges="231940830#1 510492454#0 14362916#1 16233798#1"/>
    </vehicle>
    <vehicle id="79" depart="79.00" departSpeed="max">
        <route edges="-16233798#1 -14362916#1 -523773486.0.0.0 552794577#0.14.18 510492456"/>
    </vehicle>
    <vehicle id="81" depart="81.00" departSpeed="max">
        <route edges="450925440#0 244422544#0.19.0.0.0 523773486.24.12 524150338 8382447#1"/>
    </vehicle>
    <vehicle id="82" depart="82.00" departSpeed="max">
        <route edges="450925440#0 244422544#0.19.0.0.0 523773486.24.12 524150338 8382447#1"/>
    </vehicle>
    <vehicle id="83" depart="83.00" departSpeed="max">
        <route edges="231940830#1 510492454#0 -523773486.0.0.0 -523773486.0.13.0.0.0 -523773486.0.13.0.0.7 -523773486.0.13.0.17 4730637#0"/>
    </vehicle>
    <vehicle id="84" depart="84.00" departSpeed="max">
        <route edges="450925440#0 4730637#0"/>
    </vehicle>
    <vehicle id="85" depart="85.00" departSpeed="max">
        <route edges="-8382447#1 -524150338 -523773486.0.0.0 -523773486.0.13.0.0.0 -523773486.0.13.0.0.7 -523773486.0.13.0.17 -450925440#0"/>
    </vehicle>
    <vehicle id="86" depart="86.00" departSpeed="max">
        <route edges="450925440#0 244422544#0.19.0.0.0 523773486.24.12 524150338 8382447#1"/>
    </vehicle>
    <vehicle id="88" depart="88.00" departSpeed="max">
        <route edges="231940830#1 510492454#0 -523773486.0.0.0 -523773486.0.13.0.0.0 -523773486.0.13.0.0.7 -523773486.0.13.0.17 -450925440#0"/>
    </vehicle>
    <vehicle id="89" depart="89.00" departSpeed="max">
        <route edges="231940830#1 8384907#0 510492456"/>
    </vehicle>
    <vehicle id="90" depart="90.00" departSpeed="max">
        <route edges="231940830#1 510492454#0 524150338 8382447#1"/>
    </vehicle>
    <vehicle id="91" depart="91.00" departSpeed="max">
        <route edges="17670100 244422544#0.19.0.0.0 523773486.24.12 14362916#1 14362915"/>
    </vehicle>
    <vehicle id="92" depart="92.00" departSpeed="max">
        <route edges="-8382447#1 -524150338 -523773486.0.0.0 -523773486.0.13.0.0.0 -523773486.0.13.0.0.7 -523773486.0.13.0.17 -450925440#0"/>
    </vehicle>
    <vehicle id="93" depart="93.00" departSpeed="max">
        <route edges="-8382447#1 -524150338 14362916#1 16233798#1"/>
    </vehicle>
    <vehicle id="94" depart="94.00" departSpeed="max">
        <route edges="231940830#1 8384907#0 510492456"/>
    </vehicle>
    <vehicle id="95" depart="95.00" departSpeed="max">
        <route edges="17670100 244422544#0.19.0.0.0 523773486.24.12 524150338 8382447#1"/>
    </vehicle>
    <vehicle id="96" depart="96.00" departSpeed="max">
        <route edges="-8382447#1 -524150338 -523773486.0.0.0 -523773486.0.13.0.0.0 -523773486.0.13.0.0.7 -523773486.0.13.0.17 -450925440#0"/>
    </vehicle>
    <vehicle id="97" depart="97.00" departSpeed="max">
        <route edges="17670100 -450925440#0"/>
    </vehicle>
    <vehicle id="98" depart="98.00" departSpeed="max">
        <route edges="-8382447#1 -524150338 -523773486.0.0.0 552794577#0.14.18 510492456"/>
    </vehicle>
    <vehicle id="99" depart="99.00" departSpeed="max">
        <route edges="231940830#1 510492454#0 -523773486.0.0.0 -523773486.0.13.0.0.0 -523773486.0.13.0.0.7 -523773486.0.13.0.17 4730637#0"/>
    </vehicle>
    <vehicle id="100" depart="100.00" departSpeed="max">
        <route edges="-8382447#1 -524150338 -523773486.0.0.0 -523773486.0.13.0.0.0 -523773486.0.13.0.0.7 -523773486.0.13.0.17 -450925440#0"/>
    </vehicle>
    <vehicle id="101" depart="101.00" departSpeed="max">
        <route edges="450925440#0 4730637#0"/>
    </vehicle>
    <vehicle id="102" depart="102.00" departSpeed="max">
        <route edges="-16233798#1 -14362916#1 524150338 8382447#1"/>
    </vehicle>
    <vehicle id="103" depart="103.00" departSpeed="max">
        <route edges="450925440#0 244422544#0.19.0.0.0 523773486.24.12 14362916#1 16233798#1"/>
    </vehicle>
    <vehicle id="104" depart="104.00" departSpeed="max">
        <route edges="231940830#1 8384907#0 510492456"/>
    </vehicle>
    <vehicle id="105" depart="105.00" departSpeed="max">
        <route edges="231940830#1 8384907#0 510492456"/>
    </vehicle>
    <vehicle id="106" depart="106.00" departSpeed="max">
        <route edges="-16233798#1 -14362916#1 -523773486.0.0.0 -523773486.0.13.0.0.0 -523773486.0.13.0.0.7 -523773486.0.13.0.17 4730637#0"/>
    </vehicle>
    <vehicle id="107" depart="107.00" departSpeed="max">
        <route edges="17670100 244422544#0.19.0.0.0 523773486.24.12 14362916#1 16233798#1"/>
    </vehicle>
    <vehicle id="108" depart="108.00" departSpeed="max">
        <route edges="-16233798#1 14362915"/>
    </vehicle>
    <vehicle id="109" depart="109.00" departSpeed="max">
        <route edges="-8382447#1 -524150338 -523773486.0.0.0 -523773486.0.13.0.0.0 -523773486.0.13.0.0.7 -523773486.0.13.0.17 -450925440#0"/>
    </vehicle>
    <vehicle id="110" depart="110.00" departSpeed="max">
        <route edges="17670100 4730637#0"/>
    </vehicle>
    <vehicle id="111" depart="111.00" departSpeed="max">
        <route edges="-16233798#1 -14362916#1 -523773486.0.0.0 552794577#0.14.18 510492456"/>
    </vehicle>
    <vehicle id="112" depart="112.00" departSpeed="max">
        <route edges="450925440#0 244422544#0.19.0.0.0 523773486.24.12 14362916#1 16233798#1"/>
    </vehicle>
    <vehicle id="113" depart="113.00" departSpeed="max">
        <route edges="-8382447#1 -524150338 -510492454#0 -231940830#1"/>
    </vehicle>
    <vehicle id="114" depart="114.00" departSpeed="max">
        <route edges="-16233798#1 -14362916#1 524150338 8382447#1"/>
    </vehicle>
    <vehicle id="116" depart="116.00" departSpeed="max">
        <route edges="-16233798#1 -14362916#1 -523773486.0.0.0 -523773486.0.13.0.0.0 -523773486.0.13.0.0.7 -523773486.0.13.0.17 4730637#0"/>
    </vehicle>
    <vehicle id="117" depart="117.00" departSpeed="max">
        <route edges="-8382447#1 -524150338 -523773486.0.0.0 552794577#0.14.18 510492456"/>
    </vehicle>
    <vehicle id="118" depart="118.00" departSpeed="max">
        <route edges="-8382447#1 -524150338 -523773486.0.0.0 -523773486.0.13.0.0.0 -523773486.0.13.0.0.7 -523773486.0.13.0.17 -450925440#0"/>
    </vehicle>
    <vehicle id="120" depart="120.00" departSpeed="max">
        <route edges="231940830#1 510492454#0 -523773486.0.0.0 -523773486.0.13.0.0.0 -523773486.0.13.0.0.7 -523773486.0.13.0.17 4730637#0"/>
    </vehicle>
    <vehicle id="122" depart="122.00" departSpeed="max">
        <route edges="231940830#1 510492454#0 -523773486.0.0.0 -523773486.0.13.0.0.0 -523773486.0.13.0.0.7 -523773486.0.13.0.17 -450925440#0"/>
    </vehicle>
    <vehicle id="123" depart="123.00" departSpeed="max">
        <route edges="450925440#0 244422544#0.19.0.0.0 523773486.24.12 524150338 8382447#1"/>
    </vehicle>
    <vehicle id="124" depart="124.00" departSpeed="max">
        <route edges="231940830#1 8384907#0 510492456"/>
    </vehicle>
    <vehicle id="125" depart="125.00" departSpeed="max">
        <route edges="231940830#1 510492454#0 -523773486.0.0.0 -523773486.0.13.0.0.0 -523773486.0.13.0.0.7 -523773486.0.13.0.17 4730637#0"/>
    </vehicle>
    <vehicle id="126" depart="126.00" departSpeed="max">
        <route edges="-16233798#1 -14362916#1 -523773486.0.0.0 552794577#0.14.18 510492456"/>
    </vehicle>
    <vehicle id="127" depart="127.00" departSpeed="max">
        <route edges="-16233798#1 -14362916#1 -510492454#0 -231940830#1"/>
    </vehicle>
    <vehicle id="128" depart="128.00" departSpeed="max">
        <route edges="-8382447#1 -524150338 -523773486.0.0.0 -523773486.0.13.0.0.0 -523773486.0.13.0.0.7 -523773486.0.13.0.17 -450925440#0"/>
    </vehicle>
    <vehicle id="129" depart="129.00" departSpeed="max">
        <route edges="231940830#1 510492454#0 524150338 8382447#1"/>
    </vehicle>
    <vehicle id="130" depart="130.00" departSpeed="max">
        <route edges="450925440#0 244422544#0.19.0.0.0 523773486.24.12 524150338 8382447#1"/>
    </vehicle>
    <vehicle id="131" depart="131.00" departSpeed="max">
        <route edges="17670100 244422544#0.19.0.0.0 523773486.24.12 -510492454#0 -231940830#1"/>
    </vehicle>
    <vehicle id="132" depart="132.00" departSpeed="max">
        <route edges="231940830#1 510492454#0 524150338 8382447#1"/>
    </vehicle>
    <vehicle id="133" depart="133.00" departSpeed="max">
        <route edges="450925440#0 244422544#0.19.0.0.0 523773486.24.12 524150338 8382447#1"/>
    </vehicle>
    <vehicle id="134" depart="134.00" departSpeed="max">
        <route edges="-16233798#1 14362915"/>
    </vehicle>
    <vehicle id="135" depart="135.00" departSpeed="max">
        <route edges="450925440#0 244422544#0.19.0.0.0 523773486.24.12 -510492454#0 -231940830#1"/>
    </vehicle>
    <vehicle id="136" depart="136.00" departSpeed="max">
        <route edges="-8382447#1 -524150338 14362916#1 16233798#1"/>
    </vehicle>
    <vehicle id="137" depart="137.00" departSpeed="max">
        <route edges="231940830#1 510492454#0 14362916#1 16233798#1"/>
    </vehicle>
    <vehicle id="138" depart="138.00" departSpeed="max">
        <route edges="231940830#1 510492454#0 -523773486.0.0.0 -523773486.0.13.0.0.0 -523773486.0.13.0.0.7 -523773486.0.13.0.17 -450925440#0"/>
    </vehicle>
    <vehicle id="139" depart="139.00" departSpeed="max">
        <route edges="-16233798#1 14362915"/>
    </vehicle>
    <vehicle id="140" depart="140.00" departSpeed="max">
        <route edges="-16233798#1 14362915"/>
    </vehicle>
    <vehicle id="141" depart="141.00" departSpeed="max">
        <route edges="-16233798#1 -14362916#1 -523773486.0.0.0 552794577#0.14.18 510492456"/>
    </vehicle>
    <vehicle id="142" depart="142.00" departSpeed="max">
        <route edges="-16233798#1 -14362916#1 -523773486.0.0.0 -523773486.0.13.0.0.0 -523773486.0.13.0.0.7 -523773486.0.13.0.17 -450925440#0"/>
    </vehicle>
    <vehicle id="143" depart="143.00" departSpeed="max">
        <route edges="-16233798#1 -14362916#1 524150338 8382447#1"/>
    </vehicle>
    <vehicle id="144" depart="144.00" departSpeed="max">
        <route edges="450925440#0 244422544#0.19.0.0.0 523773486.24.12 14362916#1 14362915"/>
    </vehicle>
    <vehicle id="145" depart="145.00" departSpeed="max">
        <route edges="231940830#1 8384907#0 510492456"/>
    </vehicle>
    <vehicle id="146" depart="146.00" departSpeed="max">
        <route edges="-16233798#1 -14362916#1 -523773486.0.0.0 552794577#0.14.18 510492456"/>
    </vehicle>
    <vehicle id="147" depart="147.00" departSpeed="max">
        <route edges="-8382447#1 -524150338 14362916#1 14362915"/>
    </vehicle>
    <vehicle id="148" depart="148.00" departSpeed="max">
        <route edges="-16233798#1 -14362916#1 -523773486.0.0.0 -523773486.0.13.0.0.0 -523773486.0.13.0.0.7 -523773486.0.13.0.17 -450925440#0"/>
    </vehicle>
    <vehicle id="149" depart="149.00" departSpeed="max">
        <route edges="231940830#1 510492454#0 -523773486.0.0.0 -523773486.0.13.0.0.0 -523773486.0.13.0.0.7 -523773486.0.13.0.17 -450925440#0"/>
    </vehicle>
    <vehicle id="150" depart="150.00" departSpeed="max">
        <route edges="231940830#1 510492454#0 -523773486.0.0.0 -523773486.0.13.0.0.0 -523773486.0.13.0.0.7 -523773486.0.13.0.17 -450925440#0"/>
    </vehicle>
    <vehicle id="151" depart="151.00" departSpeed="max">
        <route edges="231940830#1 510492454#0 524150338 8382447#1"/>
    </vehicle>
    <vehicle id="152" depart="152.00" departSpeed="max">
        <route edges="17670100 244422544#0.19.0.0.0 523773486.24.12 -510492454#0 -231940830#1"/>
    </vehicle>
    <vehicle id="153" depart="153.00" departSpeed="max">
        <route edges="17670100 -450925440#0"/>
    </vehicle>
    <vehicle id="156" depart="156.00" departSpeed="max">
        <route edges="-16233798#1 14362915"/>
    </vehicle>
    <vehicle id="157" depart="157.00" departSpeed="max">
        <route edges="17670100 -450925440#0"/>
    </vehicle>
    <vehicle id="160" depart="160.00" departSpeed="max">
        <route edges="231940830#1 8384907#0 510492456"/>
    </vehicle>
    <vehicle id="161" depart="161.00" departSpeed="max">
        <route edges="231940830#1 8384907#0 510492456"/>
    </vehicle>
    <vehicle id="162" depart="162.00" departSpeed="max">
        <route edges="-16233798#1 14362915"/>
    </vehicle>
    <vehicle id="163" depart="163.00" departSpeed="max">
        <route edges="-16233798#1 -14362916#1 524150338 8382447#1"/>
    </vehicle>
    <vehicle id="164" depart="164.00" departSpeed="max">
        <route edges="17670100 244422544#0.19.0.0.0 523773486.24.12 524150338 8382447#1"/>
    </vehicle>
    <vehicle id="165" depart="165.00" departSpeed="max">
        <route edges="450925440#0 244422544#0.19.0.0.0 523773486.24.12 524150338 8382447#1"/>
    </vehicle>
    <vehicle id="166" depart="166.00" departSpeed="max">
        <route edges="17670100 244422544#0.19.0.0.0 523773486.24.12 14362916#1 16233798#1"/>
    </vehicle>
    <vehicle id="167" depart="167.00" departSpeed="max">
        <route edges="-8382447#1 -524150338 -510492454#0 -231940830#1"/>
    </vehicle>
    <vehicle id="168" depart="168.00" departSpeed="max">
        <route edges="231940830#1 510492454#0 524150338 8382447#1"/>
    </vehicle>
    <vehicle id="169" depart="169.00" departSpeed="max">
        <route edges="-16233798#1 -14362916#1 -523773486.0.0.0 552794577#0.14.18 510492456"/>
    </vehicle>
    <vehicle id="170" depart="170.00" departSpeed="max">
        <route edges="-16233798#1 -14362916#1 -523773486.0.0.0 -523773486.0.13.0.0.0 -523773486.0.13.0.0.7 -523773486.0.13.0.17 -450925440#0"/>
    </vehicle>
    <vehicle id="171" depart="171.00" departSpeed="max">
        <route edges="231940830#1 510492454#0 -523773486.0.0.0 -523773486.0.13.0.0.0 -523773486.0.13.0.0.7 -523773486.0.13.0.17 -450925440#0"/>
    </vehicle>
    <vehicle id="172" depart="172.00" departSpeed="max">
        <route edges="450925440#0 244422544#0.19.0.0.0 523773486.24.12 524150338 8382447#1"/>
    </vehicle>
    <vehicle id="173" depart="173.00" departSpeed="max">
        <route edges="450925440#0 244422544#0.19.0.0.0 523773486.24.12 524150338 8382447#1"/>
    </vehicle>
    <vehicle id="174" depart="174.00" departSpeed="max">
        <route edges="450925440#0 244422544#0.19.0.0.0 523773486.24.12 524150338 8382447#1"/>
    </vehicle>
    <vehicle id="175" depart="175.00" departSpeed="max">
        <route edges="17670100 -450925440#0"/>
    </vehicle>
    <vehicle id="177" depart="177.00" departSpeed="max">
        <route edges="231940830#1 510492454#0 14362916#1 16233798#1"/>
    </vehicle>
    <vehicle id="178" depart="178.00" departSpeed="max">
        <route edges="17670100 -450925440#0"/>
    </vehicle>
    <vehicle id="179" depart="179.00" departSpeed="max">
        <route edges="-8382447#1 -524150338 -523773486.0.0.0 -523773486.0.13.0.0.0 -523773486.0.13.0.0.7 -523773486.0.13.0.17 -450925440#0"/>
    </vehicle>
    <vehicle id="180" depart="180.00" departSpeed="max">
        <route edges="-16233798#1 -14362916#1 524150338 8382447#1"/>
    </vehicle>
    <vehicle id="181" depart="181.00" departSpeed="max">
        <route edges="-16233798#1 -14362916#1 -523773486.0.0.0 552794577#0.14.18 510492456"/>
    </vehicle>
    <vehicle id="182" depart="182.00" departSpeed="max">
        <route edges="-16233798#1 -14362916#1 -523773486.0.0.0 552794577#0.14.18 510492456"/>
    </vehicle>
    <vehicle id="183" depart="183.00" departSpeed="max">
        <route edges="17670100 4730637#0"/>
    </vehicle>
    <vehicle id="184" depart="184.00" departSpeed="max">
        <route edges="-16233798#1 -14362916#1 -523773486.0.0.0 -523773486.0.13.0.0.0 -523773486.0.13.0.0.7 -523773486.0.13.0.17 -450925440#0"/>
    </vehicle>
    <vehicle id="185" depart="185.00" departSpeed="max">
        <route edges="450925440#0 4730637#0"/>
    </vehicle>
    <vehicle id="186" depart="186.00" departSpeed="max">
        <route edges="450925440#0 244422544#0.19.0.0.0 523773486.24.12 14362916#1 16233798#1"/>
    </vehicle>
    <vehicle id="187" depart="187.00" departSpeed="max">
        <route edges="-8382447#1 -524150338 -523773486.0.0.0 -523773486.0.13.0.0.0 -523773486.0.13.0.0.7 -523773486.0.13.0.17 4730637#0"/>
    </vehicle>
    <vehicle id="188" depart="188.00" departSpeed="max">
        <route edges="231940830#1 510492454#0 14362916#1 16233798#1"/>
    </vehicle>
    <vehicle id="189" depart="189.00" departSpeed="max">
        <route edges="231940830#1 510492454#0 14362916#1 14362915"/>
    </vehicle>
    <vehicle id="190" depart="190.00" departSpeed="max">
        <route edges="-8382447#1 -524150338 -523773486.0.0.0 552794577#0.14.18 510492456"/>
    </vehicle>
    <vehicle id="191" depart="191.00" departSpeed="max">
        <route edges="-8382447#1 -524150338 -523773486.0.0.0 552794577#0.14.18 510492456"/>
    </vehicle>
    <vehicle id="192" depart="192.00" departSpeed="max">
        <route edges="-16233798#1 -14362916#1 -510492454#0 -231940830#1"/>
    </vehicle>
    <vehicle id="193" depart="193.00" departSpeed="max">
        <route edges="-8382447#1 -524150338 -523773486.0.0.0 552794577#0.14.18 510492456"/>
    </vehicle>
    <vehicle id="194" depart="194.00" departSpeed="max">
        <route edges="450925440#0 4730637#0"/>
    </vehicle>
    <vehicle id="195" depart="195.00" departSpeed="max">
        <route edges="17670100 244422544#0.19.0.0.0 523773486.24.12 -510492454#0 -231940830#1"/>
    </vehicle>
    <vehicle id="196" depart="196.00" departSpeed="max">
        <route edges="231940830#1 8384907#0 510492456"/>
    </vehicle>
    <vehicle id="197" depart="197.00" departSpeed="max">
        <route edges="-16233798#1 -14362916#1 524150338 8382447#1"/>
    </vehicle>
    <vehicle id="198" depart="198.00" departSpeed="max">
        <route edges="-8382447#1 -524150338 -523773486.0.0.0 552794577#0.14.18 510492456"/>
    </vehicle>
    <vehicle id="199" depart="199.00" departSpeed="max">
        <route edges="231940830#1 510492454#0 524150338 8382447#1"/>
    </vehicle>
    <vehicle id="200" depart="200.00" departSpeed="max">
        <route edges="450925440#0 244422544#0.19.0.0.0 523773486.24.12 14362916#1 16233798#1"/>
    </vehicle>
    <vehicle id="202" depart="202.00" departSpeed="max">
        <route edges="-16233798#1 14362915"/>
    </vehicle>
    <vehicle id="203" depart="203.00" departSpeed="max">
        <route edges="-8382447#1 -524150338 -523773486.0.0.0 -523773486.0.13.0.0.0 -523773486.0.13.0.0.7 -523773486.0.13.0.17 4730637#0"/>
    </vehicle>
    <vehicle id="204" depart="204.00" departSpeed="max">
        <route edges="-16233798#1 -14362916#1 -523773486.0.0.0 -523773486.0.13.0.0.0 -523773486.0.13.0.0.7 -523773486.0.13.0.17 4730637#0"/>
    </vehicle>
    <vehicle id="205" depart="205.00" departSpeed="max">
        <route edges="17670100 244422544#0.19.0.0.0 523773486.24.12 14362916#1 14362915"/>
    </vehicle>
    <vehicle id="209" depart="209.00" departSpeed="max">
        <route edges="-16233798#1 -14362916#1 524150338 8382447#1"/>
    </vehicle>
    <vehicle id="210" depart="210.00" departSpeed="max">