<?xml version="1.0" encoding="UTF-8"?>

<!-- generated on 3/09/2018 18:00:37 by Netedit Version 0.32.0
<?xml version="1.0" encoding="UTF-8"?>

<configuration xmlns:xsi="http://www.w3.org/2001/XMLSchema-instance" xsi:noNamespaceSchemaLocation="http://sumo.dlr.de/xsd/netconvertConfiguration.xsd">

    <input>
        <sumo-net-file value="C:\Users\GUIX\Documents\Code\Python\crossing-reinf\trone.net.xml"/>
    </input>

    <output>
        <output-file value="C:\Users\GUIX\Documents\Code\Python\crossing-reinf\trone-poly.net.xml"/>
    </output>

    <processing>
        <no-turnarounds value="true"/>
        <offset.disable-normalization value="true"/>
        <lefthand value="false"/>
        <junctions.corner-detail value="0"/>
        <rectangular-lane-cut value="false"/>
        <walkingareas value="false"/>
    </processing>

</configuration>
-->

<net version="0.27" xmlns:xsi="http://www.w3.org/2001/XMLSchema-instance" xsi:noNamespaceSchemaLocation="http://sumo.dlr.de/xsd/net_file.xsd">

    <location netOffset="-596405.72,-5631662.81" convBoundary="216.21,222.56,624.19,777.92" origBoundary="4.369053,50.828606,4.379372,50.835523" projParameter="+proj=utm +zone=31 +ellps=WGS84 +datum=WGS84 +units=m +no_defs"/>

    <type id="highway.bridleway" priority="1" numLanes="1" speed="2.78" allow="pedestrian" oneway="1" width="2.00"/>
    <type id="highway.bus_guideway" priority="1" numLanes="1" speed="8.33" allow="bus" oneway="1"/>
    <type id="highway.cycleway" priority="1" numLanes="1" speed="5.56" allow="bicycle" oneway="0" width="1.00"/>
    <type id="highway.footway" priority="1" numLanes="1" speed="2.78" allow="pedestrian" oneway="1" width="2.00"/>
    <type id="highway.ford" priority="1" numLanes="1" speed="2.78" allow="army" oneway="0"/>
    <type id="highway.living_street" priority="3" numLanes="1" speed="2.78" disallow="tram rail_urban rail rail_electric ship" oneway="0"/>
    <type id="highway.motorway" priority="13" numLanes="2" speed="44.44" allow="private emergency authority army vip passenger hov taxi bus coach delivery truck trailer motorcycle evehicle custom1 custom2" oneway="1"/>
    <type id="highway.motorway_link" priority="12" numLanes="1" speed="22.22" allow="private emergency authority army vip passenger hov taxi bus coach delivery truck trailer motorcycle evehicle custom1 custom2" oneway="1"/>
    <type id="highway.path" priority="1" numLanes="1" speed="2.78" allow="bicycle pedestrian" oneway="1" width="2.00"/>
    <type id="highway.pedestrian" priority="1" numLanes="1" speed="2.78" allow="pedestrian" oneway="1" width="2.00"/>
    <type id="highway.primary" priority="9" numLanes="2" speed="27.78" disallow="tram rail_urban rail rail_electric ship" oneway="0"/>
    <type id="highway.primary_link" priority="8" numLanes="1" speed="22.22" disallow="tram rail_urban rail rail_electric ship" oneway="0"/>
    <type id="highway.raceway" priority="14" numLanes="2" speed="83.33" allow="vip" oneway="0"/>
    <type id="highway.residential" priority="4" numLanes="1" speed="13.89" disallow="tram rail_urban rail rail_electric ship" oneway="0"/>
    <type id="highway.secondary" priority="7" numLanes="2" speed="27.78" disallow="tram rail_urban rail rail_electric ship" oneway="0"/>
    <type id="highway.secondary_link" priority="6" numLanes="1" speed="22.22" disallow="tram rail_urban rail rail_electric ship" oneway="0"/>
    <type id="highway.service" priority="2" numLanes="1" speed="5.56" allow="delivery bicycle pedestrian" oneway="0"/>
    <type id="highway.services" priority="1" numLanes="1" speed="8.33" disallow="tram rail_urban rail rail_electric ship" oneway="0"/>
    <type id="highway.stairs" priority="1" numLanes="1" speed="1.39" allow="pedestrian" oneway="1" width="2.00"/>
    <type id="highway.step" priority="1" numLanes="1" speed="1.39" allow="pedestrian" oneway="1" width="2.00"/>
    <type id="highway.steps" priority="1" numLanes="1" speed="1.39" allow="pedestrian" oneway="1" width="2.00"/>
    <type id="highway.tertiary" priority="6" numLanes="1" speed="22.22" disallow="tram rail_urban rail rail_electric ship" oneway="0"/>
    <type id="highway.tertiary_link" priority="5" numLanes="1" speed="22.22" disallow="tram rail_urban rail rail_electric ship" oneway="0"/>
    <type id="highway.track" priority="1" numLanes="1" speed="5.56" disallow="tram rail_urban rail rail_electric ship" oneway="0"/>
    <type id="highway.trunk" priority="11" numLanes="2" speed="27.78" disallow="tram rail_urban rail rail_electric bicycle pedestrian ship" oneway="0"/>
    <type id="highway.trunk_link" priority="10" numLanes="1" speed="22.22" disallow="tram rail_urban rail rail_electric bicycle pedestrian ship" oneway="0"/>
    <type id="highway.unclassified" priority="5" numLanes="1" speed="13.89" disallow="tram rail_urban rail rail_electric ship" oneway="0"/>
    <type id="highway.unsurfaced" priority="1" numLanes="1" speed="8.33" disallow="tram rail_urban rail rail_electric ship" oneway="0"/>
    <type id="railway.light_rail" priority="15" numLanes="1" speed="27.78" allow="rail_urban" oneway="1"/>
    <type id="railway.preserved" priority="15" numLanes="1" speed="27.78" allow="rail" oneway="1"/>
    <type id="railway.rail" priority="15" numLanes="1" speed="83.33" allow="rail rail_electric" oneway="1"/>
    <type id="railway.subway" priority="15" numLanes="1" speed="27.78" allow="rail_urban" oneway="1"/>
    <type id="railway.tram" priority="15" numLanes="1" speed="13.89" allow="tram" oneway="1"/>

    <edge id=":139655975_0" function="internal">
        <lane id=":139655975_0_0" index="0" disallow="tram rail_urban rail rail_electric ship" speed="13.89" length="5.09" shape="555.34,579.01 554.13,578.29 553.00,578.15 551.96,578.60 551.00,579.64"/>
    </edge>
    <edge id=":139655975_1" function="internal">
        <lane id=":139655975_1_0" index="0" disallow="tram rail_urban rail rail_electric ship" speed="13.89" length="6.22" shape="555.34,579.01 550.50,575.11"/>
    </edge>
    <edge id=":139655975_2" function="internal">
        <lane id=":139655975_2_0" index="0" disallow="tram rail_urban rail rail_electric ship" speed="13.89" length="6.23" shape="552.56,572.54 557.42,576.44"/>
    </edge>
    <edge id=":139655975_3" function="internal">
        <lane id=":139655975_3_0" index="0" disallow="tram rail_urban rail rail_electric ship" speed="13.89" length="2.84" shape="552.56,572.54 553.27,573.63 553.24,575.17"/>
    </edge>
    <edge id=":139655975_4" function="internal">
        <lane id=":139655975_4_0" index="0" speed="13.89" length="5.02" shape="553.24,575.17 552.49,577.18 551.00,579.64"/>
    </edge>
    <edge id=":165010519_0" function="internal">
        <lane id=":165010519_0_0" index="0" allow="rail rail_electric" speed="83.33" length="4.82" shape="584.34,407.81 585.68,407.17 586.60,407.25 587.10,408.03 587.16,409.51"/>
    </edge>
    <edge id=":26085301_0" function="internal">
        <lane id=":26085301_0_0" index="0" disallow="tram rail_urban rail rail_electric ship" speed="13.89" length="6.28" shape="477.77,425.41 473.75,430.25"/>
        <lane id=":26085301_0_1" index="1" disallow="tram rail_urban rail rail_electric ship" speed="13.89" length="6.28" shape="475.22,423.31 471.22,428.13"/>
    </edge>
    <edge id=":26085301_2" function="internal">
        <lane id=":26085301_2_0" index="0" disallow="tram rail_urban rail rail_electric ship" speed="13.89" length="3.17" shape="475.22,423.31 473.93,424.24 472.34,424.23"/>
    </edge>
    <edge id=":26085301_5" function="internal">
        <lane id=":26085301_5_0" index="0" speed="13.89" length="4.97" shape="472.34,424.23 470.46,423.29 468.29,421.42"/>
    </edge>
    <edge id=":26085301_3" function="internal">
        <lane id=":26085301_3_0" index="0" disallow="tram rail_urban rail rail_electric ship" speed="13.89" length="5.15" shape="468.69,426.01 469.38,424.88 469.54,423.73 469.18,422.58 468.29,421.42"/>
    </edge>
    <edge id=":26085301_4" function="internal">
        <lane id=":26085301_4_0" index="0" disallow="tram rail_urban rail rail_electric ship" speed="13.89" length="6.23" shape="468.69,426.01 472.67,421.22"/>
    </edge>
    <edge id=":26085303_0" function="internal">
        <lane id=":26085303_0_0" index="0" disallow="tram rail_urban rail rail_electric ship" speed="13.89" length="7.99" shape="434.43,482.15 432.09,480.53 430.14,479.74 428.56,479.77 427.37,480.62"/>
    </edge>
    <edge id=":26085303_1" function="internal">
        <lane id=":26085303_1_0" index="0" disallow="tram rail_urban rail rail_electric ship" speed="13.89" length="16.20" shape="434.43,482.15 421.68,472.15"/>
    </edge>
    <edge id=":26085303_2" function="internal">
        <lane id=":26085303_2_0" index="0" disallow="tram rail_urban rail rail_electric ship" speed="13.89" length="8.39" shape="434.43,482.15 431.60,478.85 430.76,475.07 430.81,474.90"/>
    </edge>
    <edge id=":26085303_13" function="internal">
        <lane id=":26085303_13_0" index="0" speed="13.89" length="9.89" shape="430.81,474.90 431.92,470.83 435.06,466.12"/>
    </edge>
    <edge id=":26085303_3" function="internal">
        <lane id=":26085303_3_0" index="0" disallow="tram rail_urban rail rail_electric ship" speed="13.89" length="10.63" shape="440.12,470.36 437.62,473.66 436.18,476.29 435.80,478.26 436.49,479.57"/>
    </edge>
    <edge id=":26085303_4" function="internal">
        <lane id=":26085303_4_0" index="0" disallow="tram rail_urban rail rail_electric ship" speed="13.89" length="16.44" shape="440.12,470.36 436.35,474.06 432.94,476.38 429.94,478.25 427.37,480.62"/>
    </edge>
    <edge id=":26085303_5" function="internal">
        <lane id=":26085303_5_0" index="0" disallow="tram rail_urban rail rail_electric ship" speed="13.89" length="18.42" shape="437.59,468.24 433.51,472.16 429.50,474.12 425.56,474.12 421.68,472.15"/>
    </edge>
    <edge id=":26085303_6" function="internal">
        <lane id=":26085303_6_0" index="0" disallow="tram rail_urban rail rail_electric ship" speed="13.89" length="8.27" shape="427.71,464.28 430.19,465.96 432.25,466.82 433.87,466.88 435.06,466.12"/>
    </edge>
    <edge id=":26085303_7" function="internal">
        <lane id=":26085303_7_0" index="0" disallow="tram rail_urban rail rail_electric ship" speed="13.89" length="17.31" shape="427.71,464.28 431.48,468.50 433.26,472.77 434.46,476.62 436.49,479.57"/>
        <lane id=":26085303_7_1" index="1" disallow="tram rail_urban rail rail_electric ship" speed="13.89" length="17.31" shape="425.70,466.90 429.62,470.58 432.11,473.97 434.09,476.99 436.49,479.57"/>
    </edge>
    <edge id=":26085303_9" function="internal">
        <lane id=":26085303_9_0" index="0" disallow="tram rail_urban rail rail_electric ship" speed="13.89" length="4.30" shape="423.69,469.52 426.83,472.46"/>
    </edge>
    <edge id=":26085303_14" function="internal">
        <lane id=":26085303_14_0" index="0" speed="13.89" length="8.93" shape="426.83,472.46 428.49,475.29 428.67,478.01 427.37,480.62"/>
    </edge>
    <edge id=":26085303_10" function="internal">
        <lane id=":26085303_10_0" index="0" disallow="tram rail_urban rail rail_electric ship" speed="13.89" length="5.02" shape="422.21,476.51 422.91,475.32 423.05,474.19 422.64,473.14 421.68,472.15"/>
    </edge>
    <edge id=":26085303_11" function="internal">
        <lane id=":26085303_11_0" index="0" disallow="tram rail_urban rail rail_electric ship" speed="13.89" length="16.61" shape="422.21,476.51 425.94,472.70 429.36,470.33 432.43,468.45 435.06,466.12"/>
    </edge>
    <edge id=":26085303_12" function="internal">
        <lane id=":26085303_12_0" index="0" disallow="tram rail_urban rail rail_electric ship" speed="13.89" length="5.91" shape="424.79,478.56 427.05,476.71 429.75,476.26 429.99,476.33"/>
    </edge>
    <edge id=":26085303_15" function="internal">
        <lane id=":26085303_15_0" index="0" speed="13.89" length="7.34" shape="429.99,476.33 432.90,477.22 436.49,479.57"/>
    </edge>
    <edge id=":26085304_0" function="internal">
        <lane id=":26085304_0_0" index="0" disallow="tram rail_urban rail rail_electric ship" speed="13.89" length="8.28" shape="395.23,520.51 393.63,522.37 392.51,523.64 391.47,524.96 390.11,526.99"/>
    </edge>
    <edge id=":26085304_1" function="internal">
        <lane id=":26085304_1_0" index="0" disallow="tram rail_urban rail rail_electric ship" speed="13.89" length="10.36" shape="387.32,525.22 388.35,522.84 388.35,520.53 387.33,518.29 385.29,516.10"/>
    </edge>
    <edge id=":26085304_2" function="internal">
        <lane id=":26085304_2_0" index="0" disallow="tram rail_urban rail rail_electric ship" speed="13.89" length="9.11" shape="387.32,525.22 388.41,522.67 388.56,520.63 388.80,518.65 390.15,516.29"/>
        <lane id=":26085304_2_1" index="1" disallow="tram rail_urban rail rail_electric ship" speed="13.89" length="9.11" shape="387.32,525.22 388.76,523.08 389.84,521.69 391.01,520.36 392.69,518.40"/>
    </edge>
    <edge id=":26197276_0" function="internal">
        <lane id=":26197276_0_0" index="0" disallow="tram rail_urban rail rail_electric ship" speed="13.89" length="5.56" shape="357.04,339.88 356.31,338.43 355.37,337.76 354.22,337.87 352.86,338.75"/>
    </edge>
    <edge id=":26197276_1" function="internal">
        <lane id=":26197276_1_0" index="0" disallow="tram rail_urban rail rail_electric ship" speed="13.89" length="10.63" shape="357.04,339.88 353.52,329.85"/>
    </edge>
    <edge id=":26197276_2" function="internal">
        <lane id=":26197276_2_0" index="0" disallow="tram rail_urban rail rail_electric ship" speed="13.89" length="11.41" shape="357.04,339.88 356.59,337.23 357.07,334.68 358.48,332.24 360.81,329.89"/>
    </edge>
    <edge id=":26197276_3" function="internal">
        <lane id=":26197276_3_0" index="0" disallow="tram rail_urban rail rail_electric ship" speed="13.89" length="7.39" shape="362.90,332.45 361.30,334.02 360.30,335.61 359.93,337.21 360.17,338.82"/>
    </edge>
    <edge id=":26197276_4" function="internal">
        <lane id=":26197276_4_0" index="0" disallow="tram rail_urban rail rail_electric ship" speed="13.89" length="11.89" shape="362.90,332.45 360.23,334.31 357.84,335.56 355.48,336.83 352.86,338.75"/>
    </edge>
    <edge id=":26197276_5" function="internal">
        <lane id=":26197276_5_0" index="0" disallow="tram rail_urban rail rail_electric ship" speed="13.89" length="12.26" shape="362.90,332.45 359.87,334.29 357.30,334.47 355.18,332.99 353.52,329.85"/>
    </edge>
    <edge id=":26197276_6" function="internal">
        <lane id=":26197276_6_0" index="0" disallow="tram rail_urban rail rail_electric ship" speed="13.89" length="5.47" shape="356.63,328.74 357.37,330.14 358.31,330.80 359.46,330.72 360.81,329.89"/>
    </edge>
    <edge id=":26197276_7" function="internal">
        <lane id=":26197276_7_0" index="0" disallow="tram rail_urban rail rail_electric ship" speed="13.89" length="10.68" shape="356.63,328.74 360.17,338.82"/>
    </edge>
    <edge id=":26197276_8" function="internal">
        <lane id=":26197276_8_0" index="0" disallow="tram rail_urban rail rail_electric ship" speed="13.89" length="11.41" shape="356.63,328.74 357.08,331.29 356.61,333.81 355.20,336.30 352.86,338.75"/>
    </edge>
    <edge id=":26197339_0" function="internal">
        <lane id=":26197339_0_0" index="0" disallow="tram rail_urban rail rail_electric ship" speed="11.11" length="5.00" shape="368.37,501.84 367.20,501.09 366.05,500.80 364.92,500.98 363.82,501.63"/>
    </edge>
    <edge id=":26197339_1" function="internal">
        <lane id=":26197339_1_0" index="0" disallow="tram rail_urban rail rail_electric ship" speed="11.11" length="5.89" shape="367.97,497.48 366.85,498.83 366.05,499.72 365.17,500.52 363.82,501.63"/>
    </edge>
    <edge id=":gneJ10_0" function="internal">
        <lane id=":gneJ10_0_0" index="0" disallow="tram rail_urban rail rail_electric ship" speed="13.89" length="5.06" shape="404.34,457.80 403.14,457.24 402.00,457.20 400.91,457.66 399.88,458.62"/>
    </edge>
    <edge id=":gneJ10_1" function="internal">
        <lane id=":gneJ10_1_0" index="0" disallow="tram rail_urban rail rail_electric ship" speed="13.89" length="6.10" shape="404.34,457.80 399.36,454.27"/>
    </edge>
    <edge id=":gneJ14_0" function="internal">
        <lane id=":gneJ14_0_0" index="0" disallow="tram rail_urban rail rail_electric ship" speed="13.89" length="3.69" shape="401.64,447.81 404.05,449.48"/>
        <lane id=":gneJ14_0_1" index="1" disallow="tram rail_urban rail rail_electric ship" speed="13.89" length="3.69" shape="401.64,447.81 401.85,449.97 402.21,452.22"/>
    </edge>
    <edge id=":gneJ8_0" function="internal">
        <lane id=":gneJ8_0_0" index="0" disallow="tram rail_urban rail rail_electric ship" speed="13.89" length="3.23" shape="416.32,457.72 418.01,457.98 419.68,458.11"/>
        <lane id=":gneJ8_0_1" index="1" disallow="tram rail_urban rail rail_electric ship" speed="13.89" length="3.23" shape="414.48,460.46 416.06,460.52 417.67,460.72"/>
        <lane id=":gneJ8_0_2" index="2" disallow="tram rail_urban rail rail_electric ship" speed="13.89" length="3.23" shape="414.48,460.46 415.04,461.94 415.65,463.34"/>
    </edge>

    <edge id="-14362916#1" from="139655975" to="26085303" priority="6" type="highway.tertiary">
        <lane id="-14362916#1_0" index="0" disallow="tram rail_urban rail rail_electric ship" speed="13.89" length="148.71" shape="550.50,575.11 434.43,482.15"/>
    </edge>
    <edge id="-16233798#1" from="2441273502" to="139655975" priority="6" type="highway.tertiary" shape="624.19,632.35 619.17,628.46 553.77,575.62">
        <lane id="-16233798#1_0" index="0" disallow="tram rail_urban rail rail_electric ship" speed="13.89" length="87.11" shape="623.18,633.65 618.15,629.75 555.34,579.01"/>
    </edge>
    <edge id="-17670100" from="26197276" to="26197260" priority="7" type="highway.secondary">
        <lane id="-17670100_0" index="0" disallow="tram rail_urban rail rail_electric ship" speed="13.89" length="113.44" shape="353.52,329.85 315.09,223.12"/>
    </edge>
    <edge id="-231940830#1" from="26085304" to="1235548240" priority="7" type="highway.secondary" shape="389.63,524.67 387.40,528.17 278.99,662.11">
        <lane id="-231940830#1_0" index="0" disallow="tram rail_urban rail rail_electric ship" speed="13.89" length="174.95" shape="390.11,526.99 388.74,529.14 280.27,663.15"/>
    </edge>
    <edge id="-23771306#2" from="165010519" to="4118524041" priority="15" type="railway.rail" shape="585.75,408.66 523.98,510.87 378.33,773.43">
        <lane id="-23771306#2_0" index="0" allow="rail rail_electric" speed="83.33" length="419.62" shape="587.16,409.51 525.41,511.70 379.77,774.23"/>
    </edge>
    <edge id="-450925440#0" from="26197276" to="26197274" priority="4" type="highway.residential">
        <lane id="-450925440#0_0" index="0" disallow="tram rail_urban rail rail_electric ship" speed="13.89" length="76.28" shape="360.81,329.89 419.88,281.61"/>
    </edge>
    <edge id="-510492454#0" from="26085303" to="26085304" priority="7" type="highway.secondary" shape="429.12,475.78 402.21,509.51 389.63,524.67">
        <lane id="-510492454#0_0" index="0" disallow="tram rail_urban rail rail_electric ship" speed="13.89" length="51.22" shape="427.37,480.62 403.49,510.55 395.23,520.51"/>
    </edge>
    <edge id="-523773486.0.0" from="26085303" to="gneJ10" priority="7" type="highway.secondary" shape="429.12,475.78 415.64,465.45 414.50,464.28 413.62,462.57 411.79,460.77 410.35,459.77 402.94,454.90">
        <lane id="-523773486.0.0_0" index="0" disallow="tram rail_urban rail rail_electric ship" speed="13.89" length="22.73" shape="421.68,472.15 414.54,466.69 413.15,465.25 412.27,463.56 410.73,462.04 409.43,461.14 404.34,457.80"/>
    </edge>
    <edge id="-523773486.0.13.0" from="gneJ10" to="26197276" priority="7" type="highway.secondary" shape="402.94,454.90 398.67,451.68 396.76,450.14 395.48,448.28 394.52,445.87 357.14,335.03">
        <lane id="-523773486.0.13.0_0" index="0" disallow="tram rail_urban rail rail_electric ship" speed="13.89" length="122.82" shape="399.36,454.27 397.66,452.99 395.54,451.27 394.02,449.06 392.97,446.44 357.04,339.88"/>
    </edge>
    <edge id="-524150338" from="26085301" to="26085303" priority="7" type="highway.secondary">
        <lane id="-524150338_0" index="0" disallow="tram rail_urban rail rail_electric ship" speed="13.89" length="52.34" shape="473.75,430.25 440.12,470.36"/>
        <lane id="-524150338_1" index="1" disallow="tram rail_urban rail rail_electric ship" speed="13.89" length="52.34" shape="471.22,428.13 437.59,468.24"/>
    </edge>
    <edge id="-8382447#1" from="26085299" to="26085301" priority="7" type="highway.secondary">
        <lane id="-8382447#1_0" index="0" disallow="tram rail_urban rail rail_electric ship" speed="13.89" length="171.64" shape="586.78,292.84 477.77,425.41"/>
        <lane id="-8382447#1_1" index="1" disallow="tram rail_urban rail rail_electric ship" speed="13.89" length="171.64" shape="584.23,290.75 475.22,423.31"/>
    </edge>
    <edge id="14362915" from="139655975" to="139655943" priority="4" type="highway.residential" spreadType="center" shape="553.77,575.62 550.74,580.02 513.88,631.11">
        <lane id="14362915_0" index="0" disallow="tram rail_urban rail rail_electric ship" speed="13.89" length="63.46" shape="551.00,579.64 550.74,580.02 513.88,631.11"/>
    </edge>
    <edge id="14362916#1" from="26085303" to="139655975" priority="6" type="highway.tertiary">
        <lane id="14362916#1_0" index="0" disallow="tram rail_urban rail rail_electric ship" speed="13.89" length="148.71" shape="436.49,479.57 552.56,572.54"/>
    </edge>
    <edge id="16233798#1" from="139655975" to="2441273502" priority="6" type="highway.tertiary" shape="553.77,575.62 619.17,628.46 624.19,632.35">
        <lane id="16233798#1_0" index="0" disallow="tram rail_urban rail rail_electric ship" speed="13.89" length="87.04" shape="557.42,576.44 620.19,627.17 625.20,631.05"/>
    </edge>
    <edge id="17670100" from="26197260" to="26197276" priority="4" type="highway.secondary">
        <lane id="17670100_0" index="0" disallow="tram rail_urban rail rail_electric ship" speed="13.89" length="113.44" shape="318.19,222.00 356.63,328.74"/>
    </edge>
    <edge id="231940830#1" from="1235548240" to="26085304" priority="7" type="highway.secondary" shape="278.99,662.11 387.40,528.17 389.63,524.67">
        <lane id="231940830#1_0" index="0" disallow="tram rail_urban rail rail_electric ship" speed="13.89" length="174.57" shape="277.71,661.07 386.06,527.20 387.32,525.22"/>
    </edge>
    <edge id="23771306#2" from="4118524041" to="165010519" priority="15" type="railway.rail" shape="378.33,773.43 523.98,510.87 585.75,408.66">
        <lane id="23771306#2_0" index="0" allow="rail rail_electric" speed="83.33" length="419.74" shape="376.89,772.63 522.55,510.04 584.34,407.81"/>
    </edge>
    <edge id="244422544#0.19.0.0" from="26197276" to="gneJ14" priority="7" type="highway.secondary" shape="357.14,335.03 391.16,435.01 393.75,442.85 396.41,446.10 401.88,450.01">
        <lane id="244422544#0.19.0.0_0" index="0" disallow="tram rail_urban rail rail_electric ship" speed="13.89" length="117.71" shape="360.17,338.82 392.72,434.48 395.22,442.04 397.55,444.89 401.64,447.81"/>
    </edge>
    <edge id="244422544#0.19.0.112" from="gneJ14" to="gneJ8" priority="7" type="highway.secondary" spreadType="center">
        <lane id="244422544#0.19.0.112_0" index="0" disallow="tram rail_urban rail rail_electric ship" speed="13.89" length="14.78" shape="404.05,449.48 416.32,457.72"/>
        <lane id="244422544#0.19.0.112_1" index="1" disallow="tram rail_urban rail rail_electric ship" speed="13.89" length="14.78" shape="402.21,452.22 414.48,460.46"/>
    </edge>
    <edge id="294653794#1.187" from="gneJ0" to="2982448589" priority="15" type="railway.rail" spreadType="center" shape="383.50,776.18 527.28,512.99 589.79,409.99">
        <lane id="294653794#1.187_0" index="0" allow="rail rail_electric" speed="83.33" length="420.39" shape="383.50,776.18 527.28,512.99 589.79,409.99"/>
    </edge>
    <edge id="450925440#0" from="26197274" to="26197276" priority="4" type="highway.residential">
        <lane id="450925440#0_0" index="0" disallow="tram rail_urban rail rail_electric ship" speed="13.89" length="76.28" shape="421.96,284.17 362.90,332.45"/>
    </edge>
    <edge id="4730637#0" from="26197276" to="26197340" priority="4" type="highway.residential" spreadType="center">
        <lane id="4730637#0_0" index="0" disallow="tram rail_urban rail rail_electric ship" speed="13.89" length="87.43" shape="352.86,338.75 286.90,396.15"/>
    </edge>
    <edge id="506796469.173" from="gneJ3" to="257555469" priority="15" type="railway.rail" spreadType="center" shape="387.07,777.92 531.32,515.60 594.58,412.47">
        <lane id="506796469.173_0" index="0" allow="rail rail_electric" speed="83.33" length="420.35" shape="387.07,777.92 531.32,515.60 594.58,412.47"/>
    </edge>
    <edge id="510492454#0" from="26085304" to="26085303" priority="7" type="highway.secondary" shape="389.63,524.67 402.21,509.51 429.12,475.78">
        <lane id="510492454#0_0" index="0" disallow="tram rail_urban rail rail_electric ship" speed="13.89" length="51.13" shape="390.15,516.29 398.37,506.39 422.21,476.51"/>
        <lane id="510492454#0_1" index="1" disallow="tram rail_urban rail rail_electric ship" speed="13.89" length="51.13" shape="392.69,518.40 400.93,508.47 424.79,478.56"/>
    </edge>
    <edge id="510492456" from="26197339" to="26197377" priority="4" type="highway.residential" spreadType="center" shape="366.01,499.86 219.95,617.92 216.21,620.94">
        <lane id="510492456_0" index="0" disallow="tram rail_urban rail rail_electric ship" speed="8.33" length="189.79" shape="363.82,501.63 219.95,617.92 216.21,620.94"/>
    </edge>
    <edge id="523773486.24.12" from="gneJ8" to="26085303" priority="7" type="highway.secondary" spreadType="center" shape="416.56,459.87 432.27,471.96">
        <lane id="523773486.24.12_0" index="0" disallow="tram rail_urban rail rail_electric ship" speed="13.89" length="10.14" shape="419.68,458.11 427.71,464.28"/>
        <lane id="523773486.24.12_1" index="1" disallow="tram rail_urban rail rail_electric ship" speed="13.89" length="10.14" shape="417.67,460.72 425.70,466.90"/>
        <lane id="523773486.24.12_2" index="2" disallow="tram rail_urban rail rail_electric ship" speed="13.89" length="10.14" shape="415.65,463.34 423.69,469.52"/>
    </edge>
    <edge id="524150338" from="26085303" to="26085301" priority="7" type="highway.secondary">
        <lane id="524150338_0" index="0" disallow="tram rail_urban rail rail_electric ship" speed="13.89" length="52.34" shape="435.06,466.12 468.69,426.01"/>
    </edge>
    <edge id="524151750" from="26085301" to="26197267" priority="4" type="highway.residential" spreadType="center" shape="471.76,424.92 465.48,418.60 463.08,414.16 474.43,297.00">
        <lane id="524151750_0" index="0" disallow="tram rail_urban rail rail_electric ship" speed="13.89" length="126.74" shape="468.29,421.42 465.48,418.60 463.08,414.16 474.43,297.00"/>
    </edge>
    <edge id="552794577#0.14.18" from="gneJ10" to="26197339" priority="4" type="highway.residential" spreadType="center">
        <lane id="552794577#0.14.18_0" index="0" disallow="tram rail_urban rail rail_electric ship" speed="13.89" length="50.28" shape="399.88,458.62 367.97,497.48"/>
    </edge>
    <edge id="8382447#1" from="26085301" to="26085299" priority="7" type="highway.secondary">
        <lane id="8382447#1_0" index="0" disallow="tram rail_urban rail rail_electric ship" speed="13.89" length="171.64" shape="472.67,421.22 581.69,288.65"/>
    </edge>
    <edge id="8384907#0" from="26085304" to="26197339" priority="4" type="highway.residential" spreadType="center" shape="389.63,524.67 386.53,517.15 366.01,499.86">
        <lane id="8384907#0_0" index="0" disallow="tram rail_urban rail rail_electric ship" speed="13.89" length="22.13" shape="385.29,516.10 368.37,501.84"/>
    </edge>

    <tlLogic id="26085303" type="static" programID="0" offset="0">
        <phase duration="27" state="GGgrrrGgGgrrr"/>
        <phase duration="3" state="YYyrrrYyYyrrr"/>
        <phase duration="27" state="rrrGGgrrrrGGg"/>
        <phase duration="3" state="rrrYYyrrrrYYy"/>
    </tlLogic>

    <junction id="1235548240" type="dead_end" x="278.99" y="662.11" incLanes="-231940830#1_0" intLanes="" shape="278.95,662.08 281.52,664.15 279.03,662.14"/>
    <junction id="139655943" type="dead_end" x="513.88" y="631.11" incLanes="14362915_0" intLanes="" shape="515.18,632.05 512.58,630.17"/>
    <junction id="139655975" type="priority" x="553.77" y="575.62" incLanes="-16233798#1_0 14362916#1_0" intLanes=":139655975_0_0 :139655975_1_0 :139655975_2_0 :139655975_4_0" shape="554.34,580.26 558.42,575.20 553.56,571.29 549.50,576.36 549.68,578.73 552.32,580.55">
        <request index="0" response="0000" foes="1000" cont="0"/>
        <request index="1" response="0000" foes="1000" cont="0"/>
        <request index="2" response="0000" foes="0000" cont="0"/>
        <request index="3" response="0011" foes="0011" cont="1"/>
    </junction>
    <junction id="165010519" type="priority" x="585.75" y="408.66" incLanes="23771306#2_0" intLanes=":165010519_0_0" shape="585.79,408.69 582.97,406.98 585.71,408.63">
        <request index="0" response="0" foes="0" cont="0"/>
    </junction>
    <junction id="2441273502" type="dead_end" x="624.19" y="632.35" incLanes="16233798#1_0" intLanes="" shape="624.16,632.39 626.18,629.78 624.22,632.31"/>
    <junction id="257555469" type="dead_end" x="594.58" y="412.47" incLanes="506796469.173_0" intLanes="" shape="593.22,411.63 595.94,413.31"/>
    <junction id="26085299" type="dead_end" x="582.96" y="289.70" incLanes="8382447#1_0" intLanes="" shape="583.00,289.73 580.45,287.64 582.92,289.67"/>