<?xml version="1.0" encoding="UTF-8"?>

<!-- generated on 6/09/2018 21:49:51 by Netedit Version 0.32.0
<?xml version="1.0" encoding="UTF-8"?>

<configuration xmlns:xsi="http://www.w3.org/2001/XMLSchema-instance" xsi:noNamespaceSchemaLocation="http://sumo.dlr.de/xsd/netconvertConfiguration.xsd">

    <input>
        <sumo-net-file value="C:\Users\GUIX\Documents\Code\Python\traffic-lights\trone.net.xml"/>
    </input>

    <output>
        <output-file value="C:\Users\GUIX\Documents\Code\Python\traffic-lights\trone.net.xml"/>
    </output>

    <processing>
        <no-turnarounds value="true"/>
        <offset.disable-normalization value="true"/>
        <lefthand value="false"/>
        <junctions.corner-detail value="0"/>
        <rectangular-lane-cut value="false"/>
        <walkingareas value="false"/>
    </processing>

</configuration>
-->

<net version="0.27" xmlns:xsi="http://www.w3.org/2001/XMLSchema-instance" xsi:noNamespaceSchemaLocation="http://sumo.dlr.de/xsd/net_file.xsd">

    <location netOffset="-596405.72,-5631662.81" convBoundary="239.53,285.19,648.77,635.28" origBoundary="4.369053,50.828606,4.379372,50.835523" projParameter="+proj=utm +zone=31 +ellps=WGS84 +datum=WGS84 +units=m +no_defs"/>

    <type id="highway.bridleway" priority="1" numLanes="1" speed="2.78" allow="pedestrian" oneway="1" width="2.00"/>
    <type id="highway.bus_guideway" priority="1" numLanes="1" speed="8.33" allow="bus" oneway="1"/>
    <type id="highway.cycleway" priority="1" numLanes="1" speed="5.56" allow="bicycle" oneway="0" width="1.00"/>
    <type id="highway.footway" priority="1" numLanes="1" speed="2.78" allow="pedestrian" oneway="1" width="2.00"/>
    <type id="highway.ford" priority="1" numLanes="1" speed="2.78" allow="army" oneway="0"/>
    <type id="highway.living_street" priority="3" numLanes="1" speed="2.78" disallow="tram rail_urban rail rail_electric ship" oneway="0"/>
    <type id="highway.motorway" priority="13" numLanes="2" speed="44.44" allow="private emergency authority army vip passenger hov taxi bus coach delivery truck trailer motorcycle evehicle custom1 custom2" oneway="1"/>
    <type id="highway.motorway_link" priority="12" numLanes="1" speed="22.22" allow="private emergency authority army vip passenger hov taxi bus coach delivery truck trailer motorcycle evehicle custom1 custom2" oneway="1"/>
    <type id="highway.path" priority="1" numLanes="1" speed="2.78" allow="bicycle pedestrian" oneway="1" width="2.00"/>
    <type id="highway.pedestrian" priority="1" numLanes="1" speed="2.78" allow="pedestrian" oneway="1" width="2.00"/>
    <type id="highway.primary" priority="9" numLanes="2" speed="27.78" disallow="tram rail_urban rail rail_electric ship" oneway="0"/>
    <type id="highway.primary_link" priority="8" numLanes="1" speed="22.22" disallow="tram rail_urban rail rail_electric ship" oneway="0"/>
    <type id="highway.raceway" priority="14" numLanes="2" speed="83.33" allow="vip" oneway="0"/>
    <type id="highway.residential" priority="4" numLanes="1" speed="13.89" disallow="tram rail_urban rail rail_electric ship" oneway="0"/>
    <type id="highway.secondary" priority="7" numLanes="2" speed="27.78" disallow="tram rail_urban rail rail_electric ship" oneway="0"/>
    <type id="highway.secondary_link" priority="6" numLanes="1" speed="22.22" disallow="tram rail_urban rail rail_electric ship" oneway="0"/>
    <type id="highway.service" priority="2" numLanes="1" speed="5.56" allow="delivery bicycle pedestrian" oneway="0"/>
    <type id="highway.services" priority="1" numLanes="1" speed="8.33" disallow="tram rail_urban rail rail_electric ship" oneway="0"/>
    <type id="highway.stairs" priority="1" numLanes="1" speed="1.39" allow="pedestrian" oneway="1" width="2.00"/>
    <type id="highway.step" priority="1" numLanes="1" speed="1.39" allow="pedestrian" oneway="1" width="2.00"/>
    <type id="highway.steps" priority="1" numLanes="1" speed="1.39" allow="pedestrian" oneway="1" width="2.00"/>
    <type id="highway.tertiary" priority="6" numLanes="1" speed="22.22" disallow="tram rail_urban rail rail_electric ship" oneway="0"/>
    <type id="highway.tertiary_link" priority="5" numLanes="1" speed="22.22" disallow="tram rail_urban rail rail_electric ship" oneway="0"/>
    <type id="highway.track" priority="1" numLanes="1" speed="5.56" disallow="tram rail_urban rail rail_electric ship" oneway="0"/>
    <type id="highway.trunk" priority="11" numLanes="2" speed="27.78" disallow="tram rail_urban rail rail_electric bicycle pedestrian ship" oneway="0"/>
    <type id="highway.trunk_link" priority="10" numLanes="1" speed="22.22" disallow="tram rail_urban rail rail_electric bicycle pedestrian ship" oneway="0"/>
    <type id="highway.unclassified" priority="5" numLanes="1" speed="13.89" disallow="tram rail_urban rail rail_electric ship" oneway="0"/>
    <type id="highway.unsurfaced" priority="1" numLanes="1" speed="8.33" disallow="tram rail_urban rail rail_electric ship" oneway="0"/>
    <type id="railway.light_rail" priority="15" numLanes="1" speed="27.78" allow="rail_urban" oneway="1"/>
    <type id="railway.preserved" priority="15" numLanes="1" speed="27.78" allow="rail" oneway="1"/>
    <type id="railway.rail" priority="15" numLanes="1" speed="83.33" allow="rail rail_electric" oneway="1"/>
    <type id="railway.subway" priority="15" numLanes="1" speed="27.78" allow="rail_urban" oneway="1"/>
    <type id="railway.tram" priority="15" numLanes="1" speed="13.89" allow="tram" oneway="1"/>

    <edge id=":139655975_0" function="internal">
        <lane id=":139655975_0_0" index="0" disallow="tram rail_urban rail rail_electric ship" speed="13.89" length="5.08" shape="531.41,561.90 530.19,561.20 529.07,561.08 528.03,561.54 527.08,562.57"/>
    </edge>
    <edge id=":139655975_1" function="internal">
        <lane id=":139655975_1_0" index="0" disallow="tram rail_urban rail rail_electric ship" speed="13.89" length="6.17" shape="531.41,561.90 526.60,558.04"/>
    </edge>
    <edge id=":139655975_2" function="internal">
        <lane id=":139655975_2_0" index="0" disallow="tram rail_urban rail rail_electric ship" speed="13.89" length="6.09" shape="528.69,555.50 533.45,559.30"/>
    </edge>
    <edge id=":139655975_3" function="internal">
        <lane id=":139655975_3_0" index="0" disallow="tram rail_urban rail rail_electric ship" speed="13.89" length="7.82" shape="528.69,555.50 529.36,556.57 529.32,558.11 528.56,560.11 527.08,562.57"/>
    </edge>
    <edge id=":165010519_0" function="internal">
        <lane id=":165010519_0_0" index="0" allow="rail rail_electric" speed="83.33" length="4.82" shape="637.92,292.62 639.28,292.01 640.20,292.10 640.68,292.88 640.72,294.37"/>
    </edge>
    <edge id=":26085301_0" function="internal">
        <lane id=":26085301_0_0" index="0" disallow="tram rail_urban rail rail_electric ship" speed="13.89" length="7.85" shape="467.66,434.83 462.70,440.83"/>
        <lane id=":26085301_0_1" index="1" disallow="tram rail_urban rail rail_electric ship" speed="13.89" length="7.85" shape="465.13,432.71 460.10,438.80"/>
    </edge>
    <edge id=":26085301_2" function="internal">
        <lane id=":26085301_2_0" index="0" disallow="tram rail_urban rail rail_electric ship" speed="13.89" length="7.55" shape="457.50,436.77 458.28,435.39 458.73,433.72 458.83,431.76 458.59,429.50"/>
    </edge>
    <edge id=":26085301_3" function="internal">
        <lane id=":26085301_3_0" index="0" disallow="tram rail_urban rail rail_electric ship" speed="13.89" length="8.02" shape="457.50,436.77 462.61,430.59"/>
    </edge>
    <edge id=":26085303_0" function="internal">
        <lane id=":26085303_0_0" index="0" disallow="tram rail_urban rail rail_electric ship" speed="13.89" length="7.79" shape="434.23,482.12 431.98,480.52 430.08,479.74 428.55,479.78 427.37,480.62"/>
    </edge>
    <edge id=":26085303_1" function="internal">
        <lane id=":26085303_1_0" index="0" disallow="tram rail_urban rail rail_electric ship" speed="13.89" length="16.03" shape="434.23,482.12 421.68,472.15"/>
    </edge>
    <edge id=":26085303_2" function="internal">
        <lane id=":26085303_2_0" index="0" disallow="tram rail_urban rail rail_electric ship" speed="13.89" length="8.35" shape="434.23,482.12 431.49,478.82 430.67,475.01 430.71,474.85"/>
    </edge>
    <edge id=":26085303_12" function="internal">
        <lane id=":26085303_12_0" index="0" speed="13.89" length="10.01" shape="430.71,474.85 431.77,470.68 434.79,465.84"/>
    </edge>
    <edge id=":26085303_3" function="internal">
        <lane id=":26085303_3_0" index="0" disallow="tram rail_urban rail rail_electric ship" speed="13.89" length="11.00" shape="439.99,469.90 437.50,473.40 436.06,476.18 435.67,478.23 436.33,479.57"/>
    </edge>
    <edge id=":26085303_4" function="internal">
        <lane id=":26085303_4_0" index="0" disallow="tram rail_urban rail rail_electric ship" speed="13.89" length="16.63" shape="439.99,469.90 436.31,473.78 432.94,476.24 429.94,478.22 427.37,480.62"/>
    </edge>
    <edge id=":26085303_5" function="internal">
        <lane id=":26085303_5_0" index="0" disallow="tram rail_urban rail rail_electric ship" speed="13.89" length="18.43" shape="437.39,467.87 433.42,471.97 429.47,474.05 425.56,474.11 421.68,472.15"/>
    </edge>
    <edge id=":26085303_6" function="internal">
        <lane id=":26085303_6_0" index="0" disallow="tram rail_urban rail rail_electric ship" speed="13.89" length="7.98" shape="427.71,464.29 430.09,465.88 432.07,466.67 433.64,466.65 434.79,465.84"/>
    </edge>
    <edge id=":26085303_7" function="internal">
        <lane id=":26085303_7_0" index="0" disallow="tram rail_urban rail rail_electric ship" speed="13.89" length="16.61" shape="425.70,466.90 429.58,470.56 432.02,473.94 433.96,476.96 436.33,479.57"/>
    </edge>
    <edge id=":26085303_8" function="internal">
        <lane id=":26085303_8_0" index="0" disallow="tram rail_urban rail rail_electric ship" speed="13.89" length="4.30" shape="423.69,469.52 426.83,472.46"/>
    </edge>
    <edge id=":26085303_13" function="internal">
        <lane id=":26085303_13_0" index="0" speed="13.89" length="8.93" shape="426.83,472.46 428.49,475.28 428.67,478.01 427.37,480.62"/>
    </edge>
    <edge id=":26085303_9" function="internal">
        <lane id=":26085303_9_0" index="0" disallow="tram rail_urban rail rail_electric ship" speed="13.89" length="5.02" shape="422.21,476.51 422.91,475.32 423.05,474.19 422.64,473.14 421.68,472.15"/>
    </edge>
    <edge id=":26085303_10" function="internal">
        <lane id=":26085303_10_0" index="0" disallow="tram rail_urban rail rail_electric ship" speed="13.89" length="16.56" shape="422.21,476.51 425.91,472.67 429.27,470.23 432.25,468.26 434.79,465.84"/>
    </edge>
    <edge id=":26085303_11" function="internal">
        <lane id=":26085303_11_0" index="0" disallow="tram rail_urban rail rail_electric ship" speed="13.89" length="5.84" shape="424.79,478.56 427.04,476.71 429.72,476.25 429.92,476.32"/>
    </edge>
    <edge id=":26085303_14" function="internal">
        <lane id=":26085303_14_0" index="0" speed="13.89" length="7.26" shape="429.92,476.32 432.81,477.21 436.33,479.57"/>
    </edge>
    <edge id=":26085304_0" function="internal">
        <lane id=":26085304_0_0" index="0" disallow="tram rail_urban rail rail_electric ship" speed="13.89" length="11.26" shape="395.29,520.44 388.50,529.42"/>
    </edge>
    <edge id=":26085304_1" function="internal">
        <lane id=":26085304_1_0" index="0" disallow="tram rail_urban rail rail_electric ship" speed="13.89" length="13.11" shape="385.70,527.64 387.64,524.55 388.22,521.58 387.44,518.72 385.31,515.98"/>
    </edge>
    <edge id=":26085304_2" function="internal">
        <lane id=":26085304_2_0" index="0" disallow="tram rail_urban rail rail_electric ship" speed="13.89" length="12.05" shape="385.70,527.64 387.20,524.90 387.68,522.26 388.30,519.46 390.21,516.22"/>
        <lane id=":26085304_2_1" index="1" disallow="tram rail_urban rail rail_electric ship" speed="13.89" length="12.05" shape="385.70,527.64 392.75,518.33"/>
    </edge>
    <edge id=":26197276_0" function="internal">
        <lane id=":26197276_0_0" index="0" disallow="tram rail_urban rail rail_electric ship" speed="13.89" length="5.53" shape="368.77,364.99 368.05,363.55 367.11,362.88 365.96,362.98 364.60,363.84"/>
    </edge>
    <edge id=":26197276_1" function="internal">
        <lane id=":26197276_1_0" index="0" disallow="tram rail_urban rail rail_electric ship" speed="13.89" length="10.50" shape="368.77,364.99 365.24,355.10"/>
    </edge>
    <edge id=":26197276_2" function="internal">
        <lane id=":26197276_2_0" index="0" disallow="tram rail_urban rail rail_electric ship" speed="13.89" length="11.32" shape="368.77,364.99 368.33,362.36 368.81,359.84 370.21,357.42 372.53,355.10"/>
    </edge>
    <edge id=":26197276_3" function="internal">
        <lane id=":26197276_3_0" index="0" disallow="tram rail_urban rail rail_electric ship" speed="13.89" length="7.27" shape="374.62,357.66 373.03,359.20 372.04,360.76 371.67,362.33 371.91,363.91"/>
    </edge>
    <edge id=":26197276_4" function="internal">
        <lane id=":26197276_4_0" index="0" disallow="tram rail_urban rail rail_electric ship" speed="13.89" length="11.80" shape="374.62,357.66 371.95,359.50 369.58,360.72 367.23,361.95 364.60,363.84"/>
    </edge>
    <edge id=":26197276_5" function="internal">
        <lane id=":26197276_5_0" index="0" disallow="tram rail_urban rail rail_electric ship" speed="13.89" length="12.18" shape="374.62,357.66 371.60,359.47 369.04,359.65 366.92,358.19 365.24,355.10"/>
    </edge>
    <edge id=":26197276_6" function="internal">
        <lane id=":26197276_6_0" index="0" disallow="tram rail_urban rail rail_electric ship" speed="13.89" length="5.45" shape="368.34,353.95 369.09,355.34 370.04,355.99 371.18,355.91 372.53,355.10"/>
    </edge>
    <edge id=":26197276_7" function="internal">
        <lane id=":26197276_7_0" index="0" disallow="tram rail_urban rail rail_electric ship" speed="13.89" length="10.58" shape="368.34,353.95 371.91,363.91"/>
    </edge>
    <edge id=":26197276_8" function="internal">
        <lane id=":26197276_8_0" index="0" disallow="tram rail_urban rail rail_electric ship" speed="13.89" length="11.30" shape="368.34,353.95 368.81,356.48 368.35,358.97 366.94,361.43 364.60,363.84"/>
    </edge>
    <edge id=":26197339_0" function="internal">
        <lane id=":26197339_0_0" index="0" disallow="tram rail_urban rail rail_electric ship" speed="13.89" length="4.89" shape="371.79,503.11 370.71,502.33 369.62,502.03 368.51,502.22 367.39,502.88"/>
    </edge>
    <edge id=":26197339_1" function="internal">
        <lane id=":26197339_1_0" index="0" disallow="tram rail_urban rail rail_electric ship" speed="13.89" length="5.84" shape="371.49,498.75 370.40,500.10 369.61,500.99 368.73,501.79 367.39,502.88"/>
    </edge>
    <edge id=":gneJ10_0" function="internal">
        <lane id=":gneJ10_0_0" index="0" disallow="tram rail_urban rail rail_electric ship" speed="13.89" length="4.88" shape="406.57,459.29 405.40,458.65 404.30,458.52 403.27,458.92 402.30,459.84"/>
    </edge>
    <edge id=":gneJ10_1" function="internal">
        <lane id=":gneJ10_1_0" index="0" disallow="tram rail_urban rail rail_electric ship" speed="13.89" length="5.74" shape="406.57,459.29 405.20,458.28 404.28,457.54 403.50,456.68 402.52,455.29"/>
    </edge>
    <edge id=":gneJ14_0" function="internal">
        <lane id=":gneJ14_0_0" index="0" disallow="tram rail_urban rail rail_electric ship" speed="13.89" length="3.30" shape="405.81,450.71 408.16,452.34"/>
        <lane id=":gneJ14_0_1" index="1" disallow="tram rail_urban rail rail_electric ship" speed="13.89" length="3.30" shape="405.78,450.99 406.54,454.66"/>
    </edge>
    <edge id=":gneJ15_0" function="internal">
        <lane id=":gneJ15_0_0" index="0" disallow="tram rail_urban rail rail_electric ship" speed="13.89" length="0.13" shape="394.84,441.87 394.80,441.75"/>
    </edge>
    <edge id=":gneJ16_0" function="internal">
        <lane id=":gneJ16_0_0" index="0" disallow="tram rail_urban rail rail_electric ship" speed="13.89" length="0.20" shape="399.26,443.19 399.28,443.25 399.30,443.28 399.32,443.32 399.34,443.37"/>
    </edge>
    <edge id=":gneJ17_0" function="internal">
        <lane id=":gneJ17_0_0" index="0" disallow="tram rail_urban rail rail_electric ship" speed="13.89" length="0.14" shape="415.55,467.46 415.45,467.37"/>
    </edge>
    <edge id=":gneJ8_0" function="internal">
        <lane id=":gneJ8_0_0" index="0" disallow="tram rail_urban rail rail_electric ship" speed="13.89" length="3.20" shape="416.33,457.74 419.66,458.09"/>
        <lane id=":gneJ8_0_1" index="1" disallow="tram rail_urban rail rail_electric ship" speed="13.89" length="3.20" shape="414.51,460.49 417.65,460.71"/>
        <lane id=":gneJ8_0_2" index="2" disallow="tram rail_urban rail rail_electric ship" speed="13.89" length="3.20" shape="414.48,460.46 415.04,461.94 415.65,463.34"/>
    </edge>

    <edge id="-14362916#1" from="139655975" to="26085303" priority="6" type="highway.tertiary">
        <lane id="-14362916#1_0" index="0" disallow="tram rail_urban rail rail_electric ship" speed="13.89" length="119.57" shape="526.60,558.04 434.23,482.12"/>
    </edge>
    <edge id="-16233798#1" from="2441273502" to="139655975" priority="6" type="highway.tertiary" shape="624.19,632.35 619.17,628.46 529.82,558.56">
        <lane id="-16233798#1_0" index="0" disallow="tram rail_urban rail rail_electric ship" speed="13.89" length="116.49" shape="623.18,633.65 618.16,629.76 531.41,561.90"/>
    </edge>
    <edge id="-17670100" from="26197276" to="26197260" priority="7" type="highway.secondary">
        <lane id="-17670100_0" index="0" disallow="tram rail_urban rail rail_electric ship" speed="13.89" length="73.94" shape="365.24,355.10 339.55,285.76"/>
    </edge>
    <edge id="-231940830#1" from="26085304" to="1235548240" priority="7" type="highway.secondary" shape="389.63,524.67 387.40,528.17 301.39,631.26">
        <lane id="-231940830#1_0" index="0" disallow="tram rail_urban rail rail_electric ship" speed="13.89" length="134.00" shape="388.50,529.42 302.66,632.32"/>
    </edge>
    <edge id="-23771306#2" from="165010519" to="4118524041" priority="15" type="railway.rail" shape="639.32,293.50 507.36,505.88 434.61,633.32">
        <lane id="-23771306#2_0" index="0" allow="rail rail_electric" speed="83.33" length="396.72" shape="640.72,294.37 508.78,506.72 436.04,634.14"/>
    </edge>
    <edge id="-450925440#0" from="26197276" to="26197274" priority="4" type="highway.residential">
        <lane id="-450925440#0_0" index="0" disallow="tram rail_urban rail rail_electric ship" speed="13.89" length="35.25" shape="372.53,355.10 399.87,332.84"/>
    </edge>
    <edge id="-510492454#0" from="26085303" to="26085304" priority="7" type="highway.secondary" shape="429.12,475.78 402.21,509.51 389.63,524.67">
        <lane id="-510492454#0_0" index="0" disallow="tram rail_urban rail rail_electric ship" speed="13.89" length="51.13" shape="427.37,480.62 403.49,510.55 395.29,520.44"/>
    </edge>
    <edge id="-523773486.0.0.0" from="26085303" to="gneJ17" priority="7" type="highway.secondary">
        <lane id="-523773486.0.0.0_0" index="0" disallow="tram rail_urban rail rail_electric ship" speed="13.89" length="7.72" shape="421.68,472.15 415.55,467.46"/>
    </edge>
    <edge id="-523773486.0.0.15" from="gneJ17" to="gneJ10" priority="7" type="highway.secondary" shape="416.56,466.15 415.76,465.42 414.35,464.05 412.47,462.25 410.23,460.21 407.76,458.12 405.19,456.19">
        <lane id="-523773486.0.0.15_0" index="0" disallow="tram rail_urban rail rail_electric ship" speed="13.89" length="12.01" shape="415.45,467.37 414.62,466.62 413.21,465.24 411.35,463.46 409.14,461.45 406.73,459.41 406.57,459.29"/>
    </edge>
    <edge id="-523773486.0.13.0.0" from="gneJ10" to="gneJ15" priority="7" type="highway.secondary" shape="405.19,456.19 403.97,454.49 402.51,452.28 400.96,449.78 399.43,447.21 398.07,444.78 397.00,442.71 396.36,441.22">
        <lane id="-523773486.0.13.0.0_0" index="0" disallow="tram rail_urban rail rail_electric ship" speed="13.89" length="15.49" shape="402.52,455.29 401.12,453.17 399.55,450.64 398.00,448.04 396.62,445.56 395.51,443.42 394.84,441.87"/>
    </edge>
    <edge id="-523773486.0.13.0.17" from="gneJ15" to="26197276" priority="7" type="highway.secondary">
        <lane id="-523773486.0.13.0.17_0" index="0" disallow="tram rail_urban rail rail_electric ship" speed="13.89" length="81.05" shape="394.80,441.75 368.77,364.99"/>
    </edge>
    <edge id="-524150338" from="26085301" to="26085303" priority="7" type="highway.secondary">
        <lane id="-524150338_0" index="0" disallow="tram rail_urban rail rail_electric ship" speed="13.89" length="36.89" shape="462.70,440.83 439.99,469.90"/>
        <lane id="-524150338_1" index="1" disallow="tram rail_urban rail rail_electric ship" speed="13.89" length="36.89" shape="460.10,438.80 437.39,467.87"/>
    </edge>
    <edge id="-8382447#1" from="26085299" to="26085301" priority="7" type="highway.secondary">
        <lane id="-8382447#1_0" index="0" disallow="tram rail_urban rail rail_electric ship" speed="13.89" length="185.29" shape="586.75,292.88 467.66,434.83"/>
        <lane id="-8382447#1_1" index="1" disallow="tram rail_urban rail rail_electric ship" speed="13.89" length="185.29" shape="584.22,290.76 465.13,432.71"/>
    </edge>
    <edge id="14362915" from="139655975" to="139655943" priority="4" type="highway.residential" spreadType="center">
        <lane id="14362915_0" index="0" disallow="tram rail_urban rail rail_electric ship" speed="13.89" length="86.20" shape="527.08,562.57 478.43,633.73"/>
    </edge>
    <edge id="14362916#1" from="26085303" to="139655975" priority="6" type="highway.tertiary">
        <lane id="14362916#1_0" index="0" disallow="tram rail_urban rail rail_electric ship" speed="13.89" length="119.57" shape="436.33,479.57 528.69,555.50"/>
    </edge>
    <edge id="16233798#1" from="139655975" to="2441273502" priority="6" type="highway.tertiary" shape="529.82,558.56 619.17,628.46 624.19,632.35">
        <lane id="16233798#1_0" index="0" disallow="tram rail_urban rail rail_electric ship" speed="13.89" length="116.47" shape="533.45,559.30 620.19,627.16 625.20,631.05"/>
    </edge>
    <edge id="17670100" from="26197260" to="26197276" priority="4" type="highway.secondary">
        <lane id="17670100_0" index="0" disallow="tram rail_urban rail rail_electric ship" speed="13.89" length="73.94" shape="342.65,284.62 368.34,353.95"/>
    </edge>
    <edge id="231940830#1" from="1235548240" to="26085304" priority="7" type="highway.secondary" shape="301.39,631.26 387.40,528.17 389.63,524.67">
        <lane id="231940830#1_0" index="0" disallow="tram rail_urban rail rail_electric ship" speed="13.89" length="133.58" shape="300.12,630.20 385.70,527.64"/>
    </edge>
    <edge id="23771306#2" from="4118524041" to="165010519" priority="15" type="railway.rail" shape="434.61,633.32 506.70,504.33 639.32,293.50">
        <lane id="23771306#2_0" index="0" allow="rail rail_electric" speed="83.33" length="396.93" shape="433.17,632.52 505.28,503.49 637.92,292.62"/>
    </edge>
    <edge id="244422544#0.19.0.0.0" from="26197276" to="gneJ16" priority="7" type="highway.secondary" shape="368.89,360.19 396.87,441.74 397.81,444.01">
        <lane id="244422544#0.19.0.0.0_0" index="0" disallow="tram rail_urban rail rail_electric ship" speed="13.89" length="83.87" shape="371.91,363.91 398.41,441.16 399.26,443.19"/>
    </edge>
    <edge id="244422544#0.19.0.0.88" from="gneJ16" to="gneJ14" priority="7" type="highway.secondary" shape="397.81,444.01 398.58,445.37 399.96,447.24 401.77,449.33 403.84,451.32 406.01,452.90">
        <lane id="244422544#0.19.0.0.88_0" index="0" disallow="tram rail_urban rail rail_electric ship" speed="13.89" length="9.86" shape="399.34,443.37 399.97,444.47 401.25,446.21 402.97,448.19 404.90,450.05 405.81,450.71"/>
    </edge>
    <edge id="244422544#0.19.0.112" from="gneJ14" to="gneJ8" priority="7" type="highway.secondary" spreadType="center">
        <lane id="244422544#0.19.0.112_0" index="0" disallow="tram rail_urban rail rail_electric ship" speed="13.89" length="9.79" shape="408.16,452.34 416.33,457.74"/>
        <lane id="244422544#0.19.0.112_1" index="1" disallow="tram rail_urban rail rail_electric ship" speed="13.89" length="9.79" shape="406.34,455.10 414.51,460.49"/>
    </edge>
    <edge id="294653794#1.187" from="gneJ0" to="2982448589" priority="15" type="railway.rail" spreadType="center" shape="438.60,635.28 512.25,507.44 646.03,295.22">
        <lane id="294653794#1.187_0" index="0" allow="rail rail_electric" speed="83.33" length="398.41" shape="438.60,635.28 512.25,507.44 646.03,295.22"/>
    </edge>
    <edge id="450925440#0" from="26197274" to="26197276" priority="4" type="highway.residential">
        <lane id="450925440#0_0" index="0" disallow="tram rail_urban rail rail_electric ship" speed="13.89" length="35.25" shape="401.95,335.40 374.62,357.66"/>
    </edge>
    <edge id="4730637#0" from="26197276" to="26197340" priority="4" type="highway.residential" spreadType="center">
        <lane id="4730637#0_0" index="0" disallow="tram rail_urban rail rail_electric ship" speed="13.89" length="64.37" shape="364.60,363.84 315.58,405.56"/>
    </edge>
    <edge id="506796469.173" from="gneJ3" to="257555469" priority="15" type="railway.rail" spreadType="center" shape="442.56,634.27 515.80,510.11 648.77,299.09">
        <lane id="506796469.173_0" index="0" allow="rail rail_electric" speed="83.33" length="393.57" shape="442.56,634.27 515.80,510.11 648.77,299.09"/>
    </edge>
    <edge id="510492454#0" from="26085304" to="26085303" priority="7" type="highway.secondary" shape="389.63,524.67 402.21,509.51 429.12,475.78">
        <lane id="510492454#0_0" index="0" disallow="tram rail_urban rail rail_electric ship" speed="13.89" length="51.04" shape="390.21,516.22 398.37,506.39 422.21,476.51"/>
        <lane id="510492454#0_1" index="1" disallow="tram rail_urban rail rail_electric ship" speed="13.89" length="51.04" shape="392.75,518.33 400.93,508.47 424.79,478.56"/>
    </edge>
    <edge id="510492456" from="26197339" to="26197377" priority="4" type="highway.residential" spreadType="center" shape="369.65,501.07 259.18,589.66 239.53,605.88">
        <lane id="510492456_0" index="0" disallow="tram rail_urban rail rail_electric ship" speed="13.89" length="164.18" shape="367.39,502.88 259.18,589.66 239.53,605.88"/>
    </edge>
    <edge id="523773486.24.12" from="gneJ8" to="26085303" priority="7" type="highway.secondary" spreadType="center" shape="416.56,459.87 432.27,471.96">
        <lane id="523773486.24.12_0" index="0" disallow="tram rail_urban rail rail_electric ship" speed="13.89" length="10.16" shape="419.66,458.09 427.71,464.29"/>
        <lane id="523773486.24.12_1" index="1" disallow="tram rail_urban rail rail_electric ship" speed="13.89" length="10.16" shape="417.65,460.71 425.70,466.90"/>
        <lane id="523773486.24.12_2" index="2" disallow="tram rail_urban rail rail_electric ship" speed="13.89" length="10.16" shape="415.63,463.32 423.69,469.52"/>
    </edge>
    <edge id="524150338" from="26085303" to="26085301" priority="7" type="highway.secondary">
        <lane id="524150338_0" index="0" disallow="tram rail_urban rail rail_electric ship" speed="13.89" length="36.89" shape="434.79,465.84 457.50,436.77"/>
    </edge>
    <edge id="524151750" from="26085301" to="26197267" priority="4" type="highway.residential" spreadType="center" shape="459.79,436.51 458.09,426.62 457.64,415.79 464.36,336.04">
        <lane id="524151750_0" index="0" disallow="tram rail_urban rail rail_electric ship" speed="13.89" length="93.79" shape="458.59,429.50 458.09,426.62 457.64,415.79 464.36,336.04"/>
    </edge>
    <edge id="552794577#0.14.18" from="gneJ10" to="26197339" priority="4" type="highway.residential" spreadType="center">
        <lane id="552794577#0.14.18_0" index="0" disallow="tram rail_urban rail rail_electric ship" speed="13.89" length="49.63" shape="402.30,459.84 371.49,498.75"/>
    </edge>
    <edge id="8382447#1" from="26085301" to="26085299" priority="7" type="highway.secondary">
        <lane id="8382447#1_0" index="0" disallow="tram rail_urban rail rail_electric ship" speed="13.89" length="185.29" shape="462.61,430.59 581.70,288.64"/>
    </edge>
    <edge id="8384907#0" from="26085304" to="26197339" priority="4" type="highway.residential" spreadType="center" shape="389.63,524.67 386.53,517.15 369.65,501.07">
        <lane id="8384907#0_0" index="0" disallow="tram rail_urban rail rail_electric ship" speed="13.89" length="18.66" shape="385.31,515.98 371.79,503.11"/>
    </edge>

    <tlLogic id="26085303" type="static" programID="0" offset="0">
        <phase duration="15" state="GGgrrrGGgrrr"/>
        <phase duration="3" state="YYyrrrYYyrrr"/>
        <phase duration="30" state="rrrGGgrrrGGg"/>
        <phase duration="3" state="rrrYYyrrrYYy"/>
    </tlLogic>

    <junction id="1235548240" type="dead_end" x="301.39" y="631.26" incLanes="-231940830#1_0" intLanes="" shape="301.35,631.23 303.89,633.34 301.43,631.29"/>
    <junction id="139655943" type="dead_end" x="478.43" y="633.73" incLanes="14362915_0" intLanes="" shape="479.75,634.63 477.11,632.83"/>
    <junction id="139655975" type="right_before_left" x="529.82" y="558.56" incLanes="-16233798#1_0 14362916#1_0" intLanes=":139655975_0_0 :139655975_1_0 :139655975_2_0 :139655975_3_0" shape="530.43,563.16 534.43,558.04 529.71,554.26 525.58,559.28 525.76,561.67 528.40,563.47">
        <request index="0" response="0000" foes="1000" cont="0"/>
        <request index="1" response="0000" foes="1000" cont="0"/>
        <request index="2" response="0000" foes="0000" cont="0"/>
        <request index="3" response="0011" foes="0011" cont="0"/>
    </junction>