<?xml version="1.0" encoding="UTF-8"?>

<!-- generated on 2/09/2018 10:38:10 by Netedit Version 0.32.0
<?xml version="1.0" encoding="UTF-8"?>

<configuration xmlns:xsi="http://www.w3.org/2001/XMLSchema-instance" xsi:noNamespaceSchemaLocation="http://sumo.dlr.de/xsd/netconvertConfiguration.xsd">

    <input>
        <sumo-net-file value="C:\Users\GUIX\Documents\Code\Python\crossing-reinf\trone\trone.net.xml"/>
    </input>

    <output>
        <output-file value="C:\Users\GUIX\Documents\Code\Python\crossing-reinf\trone\trone.net.xml"/>
    </output>

    <processing>
        <no-turnarounds value="true"/>
        <offset.disable-normalization value="true"/>
        <lefthand value="false"/>
        <junctions.corner-detail value="0"/>
        <rectangular-lane-cut value="false"/>
        <walkingareas value="false"/>
    </processing>

</configuration>
-->

<net version="0.27" xmlns:xsi="http://www.w3.org/2001/XMLSchema-instance" xsi:noNamespaceSchemaLocation="http://sumo.dlr.de/xsd/net_file.xsd">

    <location netOffset="-596405.72,-5631662.81" convBoundary="216.21,222.56,624.19,777.92" origBoundary="4.369053,50.828606,4.379372,50.835523" projParameter="+proj=utm +zone=31 +ellps=WGS84 +datum=WGS84 +units=m +no_defs"/>

    <type id="highway.bridleway" priority="1" numLanes="1" speed="2.78" allow="pedestrian" oneway="1" width="2.00"/>
    <type id="highway.bus_guideway" priority="1" numLanes="1" speed="8.33" allow="bus" oneway="1"/>
    <type id="highway.cycleway" priority="1" numLanes="1" speed="5.56" allow="bicycle" oneway="0" width="1.00"/>
    <type id="highway.footway" priority="1" numLanes="1" speed="2.78" allow="pedestrian" oneway="1" width="2.00"/>
    <type id="highway.ford" priority="1" numLanes="1" speed="2.78" allow="army" oneway="0"/>
    <type id="highway.living_street" priority="3" numLanes="1" speed="2.78" disallow="tram rail_urban rail rail_electric ship" oneway="0"/>
    <type id="highway.motorway" priority="13" numLanes="2" speed="44.44" allow="private emergency authority army vip passenger hov taxi bus coach delivery truck trailer motorcycle evehicle custom1 custom2" oneway="1"/>
    <type id="highway.motorway_link" priority="12" numLanes="1" speed="22.22" allow="private emergency authority army vip passenger hov taxi bus coach delivery truck trailer motorcycle evehicle custom1 custom2" oneway="1"/>
    <type id="highway.path" priority="1" numLanes="1" speed="2.78" allow="bicycle pedestrian" oneway="1" width="2.00"/>
    <type id="highway.pedestrian" priority="1" numLanes="1" speed="2.78" allow="pedestrian" oneway="1" width="2.00"/>
    <type id="highway.primary" priority="9" numLanes="2" speed="27.78" disallow="tram rail_urban rail rail_electric ship" oneway="0"/>
    <type id="highway.primary_link" priority="8" numLanes="1" speed="22.22" disallow="tram rail_urban rail rail_electric ship" oneway="0"/>
    <type id="highway.raceway" priority="14" numLanes="2" speed="83.33" allow="vip" oneway="0"/>
    <type id="highway.residential" priority="4" numLanes="1" speed="13.89" disallow="tram rail_urban rail rail_electric ship" oneway="0"/>
    <type id="highway.secondary" priority="7" numLanes="2" speed="27.78" disallow="tram rail_urban rail rail_electric ship" oneway="0"/>
    <type id="highway.secondary_link" priority="6" numLanes="1" speed="22.22" disallow="tram rail_urban rail rail_electric ship" oneway="0"/>
    <type id="highway.service" priority="2" numLanes="1" speed="5.56" allow="delivery bicycle pedestrian" oneway="0"/>
    <type id="highway.services" priority="1" numLanes="1" speed="8.33" disallow="tram rail_urban rail rail_electric ship" oneway="0"/>
    <type id="highway.stairs" priority="1" numLanes="1" speed="1.39" allow="pedestrian" oneway="1" width="2.00"/>
    <type id="highway.step" priority="1" numLanes="1" speed="1.39" allow="pedestrian" oneway="1" width="2.00"/>
    <type id="highway.steps" priority="1" numLanes="1" speed="1.39" allow="pedestrian" oneway="1" width="2.00"/>
    <type id="highway.tertiary" priority="6" numLanes="1" speed="22.22" disallow="tram rail_urban rail rail_electric ship" oneway="0"/>
    <type id="highway.tertiary_link" priority="5" numLanes="1" speed="22.22" disallow="tram rail_urban rail rail_electric ship" oneway="0"/>
    <type id="highway.track" priority="1" numLanes="1" speed="5.56" disallow="tram rail_urban rail rail_electric ship" oneway="0"/>
    <type id="highway.trunk" priority="11" numLanes="2" speed="27.78" disallow="tram rail_urban rail rail_electric bicycle pedestrian ship" oneway="0"/>
    <type id="highway.trunk_link" priority="10" numLanes="1" speed="22.22" disallow="tram rail_urban rail rail_electric bicycle pedestrian ship" oneway="0"/>
    <type id="highway.unclassified" priority="5" numLanes="1" speed="13.89" disallow="tram rail_urban rail rail_electric ship" oneway="0"/>
    <type id="highway.unsurfaced" priority="1" numLanes="1" speed="8.33" disallow="tram rail_urban rail rail_electric ship" oneway="0"/>
    <type id="railway.light_rail" priority="15" numLanes="1" speed="27.78" allow="rail_urban" oneway="1"/>
    <type id="railway.preserved" priority="15" numLanes="1" speed="27.78" allow="rail" oneway="1"/>
    <type id="railway.rail" priority="15" numLanes="1" speed="83.33" allow="rail rail_electric" oneway="1"/>
    <type id="railway.subway" priority="15" numLanes="1" speed="27.78" allow="rail_urban" oneway="1"/>
    <type id="railway.tram" priority="15" numLanes="1" speed="13.89" allow="tram" oneway="1"/>

    <edge id=":139655975_0" function="internal">
        <lane id=":139655975_0_0" index="0" disallow="tram rail_urban rail rail_electric ship" speed="13.89" length="5.09" shape="555.34,579.01 554.13,578.29 553.00,578.15 551.96,578.60 551.00,579.64"/>
    </edge>
    <edge id=":139655975_1" function="internal">
        <lane id=":139655975_1_0" index="0" disallow="tram rail_urban rail rail_electric ship" speed="13.89" length="6.22" shape="555.34,579.01 550.50,575.11"/>
    </edge>
    <edge id=":139655975_2" function="internal">
        <lane id=":139655975_2_0" index="0" disallow="tram rail_urban rail rail_electric ship" speed="13.89" length="6.23" shape="552.56,572.54 557.42,576.44"/>
    </edge>
    <edge id=":139655975_3" function="internal">
        <lane id=":139655975_3_0" index="0" disallow="tram rail_urban rail rail_electric ship" speed="13.89" length="2.84" shape="552.56,572.54 553.27,573.63 553.24,575.17"/>
    </edge>
    <edge id=":139655975_4" function="internal">
        <lane id=":139655975_4_0" index="0" speed="13.89" length="5.02" shape="553.24,575.17 552.49,577.18 551.00,579.64"/>
    </edge>
    <edge id=":165010519_0" function="internal">
        <lane id=":165010519_0_0" index="0" allow="rail rail_electric" speed="83.33" length="4.82" shape="584.34,407.81 585.68,407.17 586.60,407.25 587.10,408.03 587.16,409.51"/>
    </edge>
    <edge id=":26085301_0" function="internal">
        <lane id=":26085301_0_0" index="0" disallow="tram rail_urban rail rail_electric ship" speed="13.89" length="6.28" shape="477.77,425.41 473.75,430.25"/>
        <lane id=":26085301_0_1" index="1" disallow="tram rail_urban rail rail_electric ship" speed="13.89" length="6.28" shape="475.22,423.31 471.22,428.13"/>
    </edge>
    <edge id=":26085301_2" function="internal">
        <lane id=":26085301_2_0" index="0" disallow="tram rail_urban rail rail_electric ship" speed="13.89" length="3.17" shape="475.22,423.31 473.93,424.24 472.34,424.23"/>
    </edge>
    <edge id=":26085301_5" function="internal">
        <lane id=":26085301_5_0" index="0" speed="13.89" length="4.97" shape="472.34,424.23 470.46,423.29 468.29,421.42"/>
    </edge>
    <edge id=":26085301_3" function="internal">
        <lane id=":26085301_3_0" index="0" disallow="tram rail_urban rail rail_electric ship" speed="13.89" length="5.15" shape="468.69,426.01 469.38,424.88 469.54,423.73 469.18,422.58 468.29,421.42"/>
    </edge>
    <edge id=":26085301_4" function="internal">
        <lane id=":26085301_4_0" index="0" disallow="tram rail_urban rail rail_electric ship" speed="13.89" length="6.23" shape="468.69,426.01 472.67,421.22"/>
    </edge>
    <edge id=":26085303_0" function="internal">
        <lane id=":26085303_0_0" index="0" disallow="tram rail_urban rail rail_electric ship" speed="13.89" length="7.98" shape="434.43,482.15 432.09,480.53 430.14,479.74 428.57,479.76 427.38,480.61"/>
    </edge>
    <edge id=":26085303_1" function="internal">
        <lane id=":26085303_1_0" index="0" disallow="tram rail_urban rail rail_electric ship" speed="20.84" length="16.20" shape="434.43,482.15 421.69,472.14"/>
    </edge>
    <edge id=":26085303_2" function="internal">
        <lane id=":26085303_2_0" index="0" disallow="tram rail_urban rail rail_electric ship" speed="13.89" length="18.28" shape="434.43,482.15 431.60,478.84 430.76,475.07 431.92,470.83 435.07,466.12"/>
    </edge>
    <edge id=":26085303_3" function="internal">
        <lane id=":26085303_3_0" index="0" disallow="tram rail_urban rail rail_electric ship" speed="13.89" length="10.63" shape="440.13,470.36 437.62,473.65 436.18,476.29 435.80,478.26 436.49,479.57"/>
    </edge>
    <edge id=":26085303_4" function="internal">
        <lane id=":26085303_4_0" index="0" disallow="tram rail_urban rail rail_electric ship" speed="13.89" length="16.43" shape="440.13,470.36 436.36,474.05 432.95,476.37 429.95,478.24 427.38,480.61"/>
    </edge>
    <edge id=":26085303_5" function="internal">
        <lane id=":26085303_5_0" index="0" disallow="tram rail_urban rail rail_electric ship" speed="20.84" length="18.41" shape="437.60,468.24 433.52,472.16 429.51,474.12 425.57,474.11 421.69,472.14"/>
    </edge>
    <edge id=":26085303_6" function="internal">
        <lane id=":26085303_6_0" index="0" disallow="tram rail_urban rail rail_electric ship" speed="20.84" length="8.23" shape="427.74,464.30 430.21,465.97 432.26,466.83 433.88,466.88 435.07,466.12"/>
    </edge>
    <edge id=":26085303_7" function="internal">
        <lane id=":26085303_7_0" index="0" disallow="tram rail_urban rail rail_electric ship" speed="20.84" length="17.28" shape="427.74,464.30 431.50,468.51 433.27,472.78 434.46,476.62 436.49,479.57"/>
        <lane id=":26085303_7_1" index="1" disallow="tram rail_urban rail rail_electric ship" speed="20.84" length="17.28" shape="425.73,466.91 429.63,470.59 432.11,473.97 434.09,476.99 436.49,479.57"/>
    </edge>
    <edge id=":26085303_9" function="internal">
        <lane id=":26085303_9_0" index="0" disallow="tram rail_urban rail rail_electric ship" speed="20.84" length="4.29" shape="423.71,469.52 426.84,472.46"/>
    </edge>
    <edge id=":26085303_13" function="internal">
        <lane id=":26085303_13_0" index="0" speed="20.84" length="8.91" shape="426.84,472.46 428.50,475.28 428.68,478.00 427.38,480.61"/>
    </edge>
    <edge id=":26085303_10" function="internal">
        <lane id=":26085303_10_0" index="0" disallow="tram rail_urban rail rail_electric ship" speed="20.84" length="5.02" shape="422.22,476.49 422.92,475.30 423.06,474.18 422.66,473.13 421.69,472.14"/>
    </edge>
    <edge id=":26085303_11" function="internal">
        <lane id=":26085303_11_0" index="0" disallow="tram rail_urban rail rail_electric ship" speed="13.89" length="16.59" shape="422.22,476.49 425.95,472.69 429.37,470.32 432.43,468.45 435.07,466.12"/>
    </edge>
    <edge id=":26085303_12" function="internal">
        <lane id=":26085303_12_0" index="0" disallow="tram rail_urban rail rail_electric ship" speed="13.89" length="13.23" shape="424.80,478.55 427.05,476.70 429.75,476.26 432.90,477.22 436.49,479.57"/>
    </edge>
    <edge id=":26085304_0" function="internal">
        <lane id=":26085304_0_0" index="0" disallow="tram rail_urban rail rail_electric ship" speed="13.89" length="8.28" shape="395.23,520.51 393.63,522.37 392.51,523.64 391.47,524.96 390.11,526.99"/>
    </edge>
    <edge id=":26085304_1" function="internal">
        <lane id=":26085304_1_0" index="0" disallow="tram rail_urban rail rail_electric ship" speed="13.89" length="2.67" shape="395.23,520.51 393.88,521.11 392.73,520.82"/>
    </edge>
    <edge id=":26085304_5" function="internal">
        <lane id=":26085304_5_0" index="0" speed="13.89" length="8.88" shape="392.73,520.82 391.77,520.57 388.91,518.91 385.29,516.10"/>
    </edge>
    <edge id=":26085304_2" function="internal">
        <lane id=":26085304_2_0" index="0" disallow="tram rail_urban rail rail_electric ship" speed="13.89" length="10.36" shape="387.32,525.22 388.35,522.84 388.35,520.53 387.33,518.29 385.29,516.10"/>
    </edge>
    <edge id=":26085304_3" function="internal">
        <lane id=":26085304_3_0" index="0" disallow="tram rail_urban rail rail_electric ship" speed="13.89" length="9.11" shape="387.32,525.22 388.41,522.67 388.56,520.63 388.80,518.65 390.15,516.29"/>
        <lane id=":26085304_3_1" index="1" disallow="tram rail_urban rail rail_electric ship" speed="13.89" length="9.11" shape="387.32,525.22 388.76,523.08 389.84,521.69 391.01,520.36 392.69,518.40"/>
    </edge>
    <edge id=":26197276_0" function="internal">
        <lane id=":26197276_0_0" index="0" disallow="tram rail_urban rail rail_electric ship" speed="11.11" length="5.50" shape="357.14,339.76 356.38,338.35 355.42,337.70 354.28,337.82 352.94,338.69"/>
    </edge>
    <edge id=":26197276_1" function="internal">
        <lane id=":26197276_1_0" index="0" disallow="tram rail_urban rail rail_electric ship" speed="13.89" length="10.54" shape="357.14,339.76 353.52,329.85"/>
    </edge>
    <edge id=":26197276_2" function="internal">
        <lane id=":26197276_2_0" index="0" disallow="tram rail_urban rail rail_electric ship" speed="13.89" length="5.18" shape="357.14,339.76 356.64,337.17 357.08,334.66"/>
    </edge>
    <edge id=":26197276_9" function="internal">
        <lane id=":26197276_9_0" index="0" speed="13.89" length="6.11" shape="357.08,334.66 358.47,332.24 360.81,329.89"/>
    </edge>
    <edge id=":26197276_3" function="internal">
        <lane id=":26197276_3_0" index="0" disallow="tram rail_urban rail rail_electric ship" speed="13.89" length="7.17" shape="362.90,332.45 361.31,334.00 360.33,335.54 359.97,337.08 360.23,338.60"/>
    </edge>
    <edge id=":26197276_4" function="internal">
        <lane id=":26197276_4_0" index="0" disallow="tram rail_urban rail rail_electric ship" speed="11.11" length="11.79" shape="362.90,332.45 360.24,334.30 357.88,335.52 355.54,336.77 352.94,338.69"/>
    </edge>
    <edge id=":26197276_5" function="internal">
        <lane id=":26197276_5_0" index="0" disallow="tram rail_urban rail rail_electric ship" speed="13.89" length="12.26" shape="362.90,332.45 359.87,334.29 357.30,334.47 355.18,332.99 353.52,329.85"/>
    </edge>
    <edge id=":26197276_6" function="internal">
        <lane id=":26197276_6_0" index="0" disallow="tram rail_urban rail rail_electric ship" speed="13.89" length="5.47" shape="356.63,328.74 357.37,330.14 358.31,330.80 359.46,330.72 360.81,329.89"/>
    </edge>
    <edge id=":26197276_7" function="internal">
        <lane id=":26197276_7_0" index="0" disallow="tram rail_urban rail rail_electric ship" speed="13.89" length="10.51" shape="356.63,328.74 360.23,338.60"/>
    </edge>
    <edge id=":26197276_8" function="internal">
        <lane id=":26197276_8_0" index="0" disallow="tram rail_urban rail rail_electric ship" speed="11.11" length="5.14" shape="356.63,328.74 357.09,331.28 356.63,333.79"/>
    </edge>
    <edge id=":26197276_10" function="internal">
        <lane id=":26197276_10_0" index="0" speed="11.11" length="6.18" shape="356.63,333.79 355.24,336.26 352.94,338.69"/>
    </edge>
    <edge id=":26197338_0" function="internal">
        <lane id=":26197338_0_0" index="0" disallow="tram rail_urban rail rail_electric ship" speed="20.84" length="4.98" shape="403.18,457.86 401.99,457.18 400.87,457.05 399.81,457.45 398.82,458.39"/>
    </edge>
    <edge id=":26197338_1" function="internal">
        <lane id=":26197338_1_0" index="0" disallow="tram rail_urban rail rail_electric ship" speed="20.84" length="5.34" shape="403.18,457.86 401.89,456.92 401.02,456.22 400.36,455.36 399.72,453.94"/>
    </edge>
    <edge id=":26197338_2" function="internal">
        <lane id=":26197338_2_0" index="0" disallow="tram rail_urban rail rail_electric ship" speed="20.84" length="4.96" shape="402.82,452.79 409.22,450.02"/>
        <lane id=":26197338_2_1" index="1" disallow="tram rail_urban rail rail_electric ship" speed="20.84" length="4.96" shape="402.82,452.79 407.21,452.63"/>
        <lane id=":26197338_2_2" index="2" disallow="tram rail_urban rail rail_electric ship" speed="20.84" length="4.96" shape="402.82,452.79 403.25,453.70 403.72,454.22 404.33,454.64 405.19,455.24"/>
    </edge>
    <edge id=":26197338_5" function="internal">
        <lane id=":26197338_5_0" index="0" disallow="tram rail_urban rail rail_electric ship" speed="13.89" length="2.16" shape="402.82,452.79 402.43,453.95 401.87,454.71"/>
    </edge>
    <edge id=":26197338_6" function="internal">
        <lane id=":26197338_6_0" index="0" speed="13.89" length="4.78" shape="401.87,454.71 401.18,455.65 399.76,457.32 398.82,458.39"/>
    </edge>
    <edge id=":26197339_0" function="internal">
        <lane id=":26197339_0_0" index="0" disallow="tram rail_urban rail rail_electric ship" speed="11.11" length="4.98" shape="368.34,501.83 367.19,501.08 366.05,500.79 364.92,500.98 363.82,501.63"/>
    </edge>
    <edge id=":26197339_1" function="internal">
        <lane id=":26197339_1_0" index="0" disallow="tram rail_urban rail rail_electric ship" speed="11.11" length="5.86" shape="367.90,497.47 366.82,498.83 366.03,499.72 365.16,500.53 363.82,501.63"/>
    </edge>

    <edge id="-14362916#1" from="139655975" to="26085303" priority="6" type="highway.tertiary">
        <lane id="-14362916#1_0" index="0" disallow="tram rail_urban rail rail_electric ship" speed="13.89" length="148.71" shape="550.50,575.11 434.43,482.15"/>
    </edge>
    <edge id="-16233798#1" from="2441273502" to="139655975" priority="6" type="highway.tertiary" shape="624.19,632.35 619.17,628.46 553.77,575.62">
        <lane id="-16233798#1_0" index="0" disallow="tram rail_urban rail rail_electric ship" speed="13.89" length="87.11" shape="623.18,633.65 618.15,629.75 555.34,579.01"/>
    </edge>
    <edge id="-17670100" from="26197276" to="26197260" priority="7" type="highway.secondary">
        <lane id="-17670100_0" index="0" disallow="tram rail_urban rail rail_electric ship" speed="13.89" length="113.44" shape="353.52,329.85 315.09,223.12"/>
    </edge>
    <edge id="-231940830#1" from="26085304" to="1235548240" priority="7" type="highway.secondary" shape="389.63,524.67 387.40,528.17 278.99,662.11">
        <lane id="-231940830#1_0" index="0" disallow="tram rail_urban rail rail_electric ship" speed="13.89" length="174.95" shape="390.11,526.99 388.74,529.14 280.27,663.15"/>
    </edge>
    <edge id="-23771306#2" from="165010519" to="4118524041" priority="15" type="railway.rail" shape="585.75,408.66 523.98,510.87 378.33,773.43">
        <lane id="-23771306#2_0" index="0" allow="rail rail_electric" speed="83.33" length="419.62" shape="587.16,409.51 525.41,511.70 379.77,774.23"/>
    </edge>
    <edge id="-244422544#0.0" from="26197338" to="26197276" priority="7" type="highway.secondary">
        <lane id="-244422544#0.0_0" index="0" disallow="tram rail_urban rail rail_electric ship" speed="13.89" length="121.87" shape="399.72,453.94 357.14,339.76"/>
    </edge>
    <edge id="-450925440#0" from="26197276" to="26197274" priority="4" type="highway.residential">
        <lane id="-450925440#0_0" index="0" disallow="tram rail_urban rail rail_electric ship" speed="13.89" length="76.28" shape="360.81,329.89 419.88,281.61"/>
    </edge>
    <edge id="-510492454#0" from="26085303" to="26085304" priority="7" type="highway.secondary" shape="429.12,475.78 402.21,509.51 389.63,524.67">
        <lane id="-510492454#0_0" index="0" disallow="tram rail_urban rail rail_electric ship" speed="13.89" length="51.24" shape="427.38,480.61 403.49,510.55 395.23,520.51"/>
    </edge>
    <edge id="-523773486" from="26085303" to="26197338" priority="7" type="highway.secondary">
        <lane id="-523773486_0" index="0" disallow="tram rail_urban rail rail_electric ship" speed="27.78" length="23.39" shape="421.69,472.14 403.18,457.86"/>
    </edge>
    <edge id="-524150338" from="26085301" to="26085303" priority="7" type="highway.secondary">
        <lane id="-524150338_0" index="0" disallow="tram rail_urban rail rail_electric ship" speed="13.89" length="52.33" shape="473.75,430.25 440.13,470.36"/>
        <lane id="-524150338_1" index="1" disallow="tram rail_urban rail rail_electric ship" speed="13.89" length="52.33" shape="471.22,428.13 437.60,468.24"/>
    </edge>
    <edge id="-8382447#1" from="26085299" to="26085301" priority="7" type="highway.secondary">
        <lane id="-8382447#1_0" index="0" disallow="tram rail_urban rail rail_electric ship" speed="13.89" length="171.64" shape="586.78,292.84 477.77,425.41"/>
        <lane id="-8382447#1_1" index="1" disallow="tram rail_urban rail rail_electric ship" speed="13.89" length="171.64" shape="584.23,290.75 475.22,423.31"/>
    </edge>
    <edge id="14362915" from="139655975" to="139655943" priority="4" type="highway.residential" spreadType="center" shape="553.77,575.62 550.74,580.02 513.88,631.11">
        <lane id="14362915_0" index="0" disallow="tram rail_urban rail rail_electric ship" speed="13.89" length="63.46" shape="551.00,579.64 550.74,580.02 513.88,631.11"/>
    </edge>
    <edge id="14362916#1" from="26085303" to="139655975" priority="6" type="highway.tertiary">
        <lane id="14362916#1_0" index="0" disallow="tram rail_urban rail rail_electric ship" speed="13.89" length="148.71" shape="436.49,479.57 552.56,572.54"/>
    </edge>
    <edge id="16233798#1" from="139655975" to="2441273502" priority="6" type="highway.tertiary" shape="553.77,575.62 619.17,628.46 624.19,632.35">
        <lane id="16233798#1_0" index="0" disallow="tram rail_urban rail rail_electric ship" speed="13.89" length="87.04" shape="557.42,576.44 620.19,627.17 625.20,631.05"/>
    </edge>
    <edge id="17670100" from="26197260" to="26197276" priority="7" type="highway.secondary">
        <lane id="17670100_0" index="0" disallow="tram rail_urban rail rail_electric ship" speed="13.89" length="113.44" shape="318.19,222.00 356.63,328.74"/>
    </edge>
    <edge id="231940830#1" from="1235548240" to="26085304" priority="7" type="highway.secondary" shape="278.99,662.11 387.40,528.17 389.63,524.67">
        <lane id="231940830#1_0" index="0" disallow="tram rail_urban rail rail_electric ship" speed="13.89" length="174.57" shape="277.71,661.07 386.06,527.20 387.32,525.22"/>
    </edge>
    <edge id="23771306#2" from="4118524041" to="165010519" priority="15" type="railway.rail" shape="378.33,773.43 523.98,510.87 585.75,408.66">
        <lane id="23771306#2_0" index="0" allow="rail rail_electric" speed="83.33" length="419.74" shape="376.89,772.63 522.55,510.04 584.34,407.81"/>
    </edge>
    <edge id="244422544#0.19" from="26197276" to="26197338" priority="7" type="highway.secondary">
        <lane id="244422544#0.19_0" index="0" disallow="tram rail_urban rail rail_electric ship" speed="13.89" length="121.87" shape="360.23,338.60 402.82,452.79"/>
    </edge>
    <edge id="294653794#1.187" from="gneJ0" to="2982448589" priority="15" type="railway.rail" spreadType="center" shape="383.50,776.18 527.28,512.99 589.79,409.99">
        <lane id="294653794#1.187_0" index="0" allow="rail rail_electric" speed="83.33" length="420.39" shape="383.50,776.18 527.28,512.99 589.79,409.99"/>
    </edge>
    <edge id="450925440#0" from="26197274" to="26197276" priority="4" type="highway.residential">
        <lane id="450925440#0_0" index="0" disallow="tram rail_urban rail rail_electric ship" speed="13.89" length="76.28" shape="421.96,284.17 362.90,332.45"/>
    </edge>
    <edge id="4730637#0" from="26197276" to="26197340" priority="4" type="highway.residential" spreadType="center">
        <lane id="4730637#0_0" index="0" disallow="tram rail_urban rail rail_electric ship" speed="8.33" length="87.54" shape="352.94,338.69 286.90,396.15"/>
    </edge>
    <edge id="506796469.173" from="gneJ3" to="257555469" priority="15" type="railway.rail" spreadType="center" shape="387.07,777.92 531.32,515.60 594.58,412.47">
        <lane id="506796469.173_0" index="0" allow="rail rail_electric" speed="83.33" length="420.35" shape="387.07,777.92 531.32,515.60 594.58,412.47"/>
    </edge>
    <edge id="510492454#0" from="26085304" to="26085303" priority="7" type="highway.secondary" shape="389.63,524.67 402.21,509.51 429.12,475.78">
        <lane id="510492454#0_0" index="0" disallow="tram rail_urban rail rail_electric ship" speed="13.89" length="51.15" shape="390.15,516.29 398.37,506.39 422.22,476.49"/>
        <lane id="510492454#0_1" index="1" disallow="tram rail_urban rail rail_electric ship" speed="13.89" length="51.15" shape="392.69,518.40 400.93,508.47 424.80,478.55"/>
    </edge>
    <edge id="510492456" from="26197339" to="26197377" priority="4" type="highway.residential" spreadType="center" shape="366.01,499.86 219.95,617.92 216.21,620.94">
        <lane id="510492456_0" index="0" disallow="tram rail_urban rail rail_electric ship" speed="8.33" length="189.79" shape="363.82,501.63 219.95,617.92 216.21,620.94"/>
    </edge>
    <edge id="523773486" from="26197338" to="26085303" priority="7" type="highway.secondary">
        <lane id="523773486_0" index="0" disallow="tram rail_urban rail rail_electric ship" speed="27.78" length="23.39" shape="409.22,450.02 427.74,464.30"/>
        <lane id="523773486_1" index="1" disallow="tram rail_urban rail rail_electric ship" speed="27.78" length="23.39" shape="407.21,452.63 425.73,466.91"/>
        <lane id="523773486_2" index="2" disallow="tram rail_urban rail rail_electric ship" speed="27.78" length="23.39" shape="405.19,455.24 423.71,469.52"/>
    </edge>
    <edge id="524150338" from="26085303" to="26085301" priority="7" type="highway.secondary">
        <lane id="524150338_0" index="0" disallow="tram rail_urban rail rail_electric ship" speed="13.89" length="52.33" shape="435.07,466.12 468.69,426.01"/>
    </edge>
    <edge id="524151750" from="26085301" to="26197267" priority="4" type="highway.residential" spreadType="center" shape="471.76,424.92 465.48,418.60 463.08,414.16 474.43,297.00">
        <lane id="524151750_0" index="0" disallow="tram rail_urban rail rail_electric ship" speed="13.89" length="126.74" shape="468.29,421.42 465.48,418.60 463.08,414.16 474.43,297.00"/>
    </edge>
    <edge id="552794577#0" from="26197338" to="26197339" priority="4" type="highway.residential" spreadType="center">
        <lane id="552794577#0_0" index="0" disallow="tram rail_urban rail rail_electric ship" speed="13.89" length="49.83" shape="398.82,458.39 367.90,497.47"/>
    </edge>
    <edge id="8382447#1" from="26085301" to="26085299" priority="7" type="highway.secondary">
        <lane id="8382447#1_0" index="0" disallow="tram rail_urban rail rail_electric ship" speed="13.89" length="171.64" shape="472.67,421.22 581.69,288.65"/>
    </edge>
    <edge id="8384907#0" from="26085304" to="26197339" priority="4" type="highway.residential" spreadType="center" shape="389.63,524.67 386.53,517.15 366.01,499.86">
        <lane id="8384907#0_0" index="0" disallow="tram rail_urban rail rail_electric ship" speed="13.89" length="22.16" shape="385.29,516.10 368.34,501.83"/>
    </edge>

    <tlLogic id="26085303" type="static" programID="0" offset="0">
        <phase duration="27" state="GGGrrrGGGGrrr"/>
        <phase duration="3" state="YYYrrrYYYYrrr"/>
        <phase duration="27" state="rrrGGGrrrrGGG"/>
        <phase duration="3" state="rrrYYYrrrrYYY"/>
    </tlLogic>

    <junction id="1235548240" type="dead_end" x="278.99" y="662.11" incLanes="-231940830#1_0" intLanes="" shape="278.95,662.08 281.52,664.15 279.03,662.14"/>
    <junction id="139655943" type="dead_end" x="513.88" y="631.11" incLanes="14362915_0" intLanes="" shape="515.18,632.05 512.58,630.17"/>
    <junction id="139655975" type="priority" x="553.77" y="575.62" incLanes="-16233798#1_0 14362916#1_0" intLanes=":139655975_0_0 :139655975_1_0 :139655975_2_0 :139655975_4_0" shape="554.34,580.26 558.42,575.20 553.56,571.29 549.50,576.36 549.68,578.73 552.32,580.55">
        <request index="0" response="0000" foes="1000" cont="0"/>
        <request index="1" response="0000" foes="1000" cont="0"/>
        <request index="2" response="0000" foes="0000" cont="0"/>
        <request index="3" response="0011" foes="0011" cont="1"/>
    </junction>
    <junction id="165010519" type="priority" x="585.75" y="408.66" incLanes="23771306#2_0" intLanes=":165010519_0_0" shape="585.79,408.69 582.97,406.98 585.71,408.63">
        <request index="0" response="0" foes="0" cont="0"/>
    </junction>
    <junction id="2441273502" type="dead_end" x="624.19" y="632.35" incLanes="16233798#1_0" intLanes="" shape="624.16,632.39 626.18,629.78 624.22,632.31"/>
    <junction id="257555469" type="dead_end" x="594.58" y="412.47" incLanes="506796469.173_0" intLanes="" shape="593.22,411.63 595.94,413.31"/>
    <junction id="26085299" type="dead_end" x="582.96" y="289.70" incLanes="8382447#1_0" intLanes="" shape="583.00,289.73 580.45,287.64 582.92,289.67"/>
    <junction id="26085301" type="priority" x="471.76" y="424.92" incLanes="-8382447#1_0 -8382447#1_1 524150338_0" intLanes=":26085301_0_0 :26085301_0_1 :26085301_5_0 :26085301_3_0 :26085301_4_0" shape="479.00,426.43 471.43,420.20 469.42,420.30 467.15,422.55 467.46,424.99 474.97,431.28">
        <request index="0" response="00000" foes="00000" cont="0"/>
        <request index="1" response="00000" foes="00000" cont="0"/>
        <request index="2" response="11000" foes="11000" cont="1"/>
        <request index="3" response="00000" foes="00100" cont="0"/>