<?xml version="1.0" encoding="UTF-8"?>

<!-- generated on 09/01/18 19:00:26 by SUMO netconvert Version 0.32.0
<?xml version="1.0" encoding="UTF-8"?>

<configuration xmlns:xsi="http://www.w3.org/2001/XMLSchema-instance" xsi:noNamespaceSchemaLocation="http://sumo.dlr.de/xsd/netconvertConfiguration.xsd">

    <input>
        <osm-files value="trone.osm"/>
    </input>

    <output>
        <output-file value="trone.net.xml"/>
    </output>

    <projection>
        <proj.utm value="true"/>
    </projection>

</configuration>
-->

<net version="0.27" xmlns:xsi="http://www.w3.org/2001/XMLSchema-instance" xsi:noNamespaceSchemaLocation="http://sumo.dlr.de/xsd/net_file.xsd">

    <location netOffset="-596405.72,-5631662.81" convBoundary="0.00,0.00,725.58,771.92" origBoundary="4.369053,50.828606,4.379372,50.835523" projParameter="+proj=utm +zone=31 +ellps=WGS84 +datum=WGS84 +units=m +no_defs"/>

    <type id="highway.bridleway" priority="1" numLanes="1" speed="2.78" allow="pedestrian" oneway="1" width="2.00"/>
    <type id="highway.bus_guideway" priority="1" numLanes="1" speed="8.33" allow="bus" oneway="1"/>
    <type id="highway.cycleway" priority="1" numLanes="1" speed="5.56" allow="bicycle" oneway="0" width="1.00"/>
    <type id="highway.footway" priority="1" numLanes="1" speed="2.78" allow="pedestrian" oneway="1" width="2.00"/>
    <type id="highway.ford" priority="1" numLanes="1" speed="2.78" allow="army" oneway="0"/>
    <type id="highway.living_street" priority="3" numLanes="1" speed="2.78" disallow="tram rail_urban rail rail_electric ship" oneway="0"/>
    <type id="highway.motorway" priority="13" numLanes="2" speed="44.44" allow="private emergency authority army vip passenger hov taxi bus coach delivery truck trailer motorcycle evehicle custom1 custom2" oneway="1"/>
    <type id="highway.motorway_link" priority="12" numLanes="1" speed="22.22" allow="private emergency authority army vip passenger hov taxi bus coach delivery truck trailer motorcycle evehicle custom1 custom2" oneway="1"/>
    <type id="highway.path" priority="1" numLanes="1" speed="2.78" allow="bicycle pedestrian" oneway="1" width="2.00"/>
    <type id="highway.pedestrian" priority="1" numLanes="1" speed="2.78" allow="pedestrian" oneway="1" width="2.00"/>
    <type id="highway.primary" priority="9" numLanes="2" speed="27.78" disallow="tram rail_urban rail rail_electric ship" oneway="0"/>
    <type id="highway.primary_link" priority="8" numLanes="1" speed="22.22" disallow="tram rail_urban rail rail_electric ship" oneway="0"/>
    <type id="highway.raceway" priority="14" numLanes="2" speed="83.33" allow="vip" oneway="0"/>
    <type id="highway.residential" priority="4" numLanes="1" speed="13.89" disallow="tram rail_urban rail rail_electric ship" oneway="0"/>
    <type id="highway.secondary" priority="7" numLanes="2" speed="27.78" disallow="tram rail_urban rail rail_electric ship" oneway="0"/>
    <type id="highway.secondary_link" priority="6" numLanes="1" speed="22.22" disallow="tram rail_urban rail rail_electric ship" oneway="0"/>
    <type id="highway.service" priority="2" numLanes="1" speed="5.56" allow="delivery bicycle pedestrian" oneway="0"/>
    <type id="highway.services" priority="1" numLanes="1" speed="8.33" disallow="tram rail_urban rail rail_electric ship" oneway="0"/>
    <type id="highway.stairs" priority="1" numLanes="1" speed="1.39" allow="pedestrian" oneway="1" width="2.00"/>
    <type id="highway.step" priority="1" numLanes="1" speed="1.39" allow="pedestrian" oneway="1" width="2.00"/>
    <type id="highway.steps" priority="1" numLanes="1" speed="1.39" allow="pedestrian" oneway="1" width="2.00"/>
    <type id="highway.tertiary" priority="6" numLanes="1" speed="22.22" disallow="tram rail_urban rail rail_electric ship" oneway="0"/>
    <type id="highway.tertiary_link" priority="5" numLanes="1" speed="22.22" disallow="tram rail_urban rail rail_electric ship" oneway="0"/>
    <type id="highway.track" priority="1" numLanes="1" speed="5.56" disallow="tram rail_urban rail rail_electric ship" oneway="0"/>
    <type id="highway.trunk" priority="11" numLanes="2" speed="27.78" disallow="tram rail_urban rail rail_electric bicycle pedestrian ship" oneway="0"/>
    <type id="highway.trunk_link" priority="10" numLanes="1" speed="22.22" disallow="tram rail_urban rail rail_electric bicycle pedestrian ship" oneway="0"/>
    <type id="highway.unclassified" priority="5" numLanes="1" speed="13.89" disallow="tram rail_urban rail rail_electric ship" oneway="0"/>
    <type id="highway.unsurfaced" priority="1" numLanes="1" speed="8.33" disallow="tram rail_urban rail rail_electric ship" oneway="0"/>
    <type id="railway.light_rail" priority="15" numLanes="1" speed="27.78" allow="rail_urban" oneway="1"/>
    <type id="railway.preserved" priority="15" numLanes="1" speed="27.78" allow="rail" oneway="1"/>
    <type id="railway.rail" priority="15" numLanes="1" speed="83.33" allow="rail rail_electric" oneway="1"/>
    <type id="railway.subway" priority="15" numLanes="1" speed="27.78" allow="rail_urban" oneway="1"/>
    <type id="railway.tram" priority="15" numLanes="1" speed="13.89" allow="tram" oneway="1"/>

    <edge id=":1234694431_0" function="internal">
        <lane id=":1234694431_0_0" index="0" allow="bicycle pedestrian" speed="2.78" length="3.79" width="2.00" shape="379.61,644.77 378.63,644.17 378.10,643.48 378.02,642.68 378.39,641.78"/>
    </edge>
    <edge id=":1234694431_1" function="internal">
        <lane id=":1234694431_1_0" index="0" allow="bicycle pedestrian" speed="2.78" length="4.54" width="2.00" shape="375.82,645.53 378.39,641.78"/>
    </edge>
    <edge id=":1234694466_0" function="internal">
        <lane id=":1234694466_0_0" index="0" allow="bicycle pedestrian" speed="2.78" length="4.01" width="2.00" shape="437.93,605.76 438.88,606.30 439.83,606.55 440.77,606.50 441.71,606.17"/>
    </edge>
    <edge id=":1234694466_1" function="internal">
        <lane id=":1234694466_1_0" index="0" allow="bicycle pedestrian" speed="2.78" length="3.95" width="2.00" shape="437.93,605.76 438.70,606.49 439.11,607.31 439.15,608.23 438.82,609.23"/>
    </edge>
    <edge id=":1234694578_0" function="internal">
        <lane id=":1234694578_0_0" index="0" allow="bicycle pedestrian" speed="2.78" length="5.36" width="2.00" shape="427.88,597.66 426.41,598.68 426.02,599.48 426.69,600.07 428.44,600.43"/>
    </edge>
    <edge id=":1234694578_1" function="internal">
        <lane id=":1234694578_1_0" index="0" allow="bicycle pedestrian" speed="2.78" length="6.38" width="2.00" shape="422.34,601.01 423.92,600.12 425.18,599.93 426.55,600.13 428.44,600.43"/>
    </edge>
    <edge id=":1234694593_0" function="internal">
        <lane id=":1234694593_0_0" index="0" allow="bicycle pedestrian" speed="2.78" length="5.07" width="2.00" shape="416.20,605.58 420.23,602.52"/>
    </edge>
    <edge id=":1234694593_1" function="internal">
        <lane id=":1234694593_1_0" index="0" allow="bicycle pedestrian" speed="2.78" length="4.14" width="2.00" shape="416.20,605.58 417.14,605.03 418.07,604.91 418.97,605.23 419.85,605.99"/>
    </edge>
    <edge id=":1234694605_0" function="internal">
        <lane id=":1234694605_0_0" index="0" allow="bicycle pedestrian" speed="2.78" length="0.51" width="2.00" shape="430.60,600.68 430.75,600.70 430.86,600.72 430.95,600.77 431.07,600.86"/>
    </edge>
    <edge id=":1234694675_0" function="internal">
        <lane id=":1234694675_0_0" index="0" allow="bicycle pedestrian" speed="2.78" length="4.23" width="2.00" shape="426.52,613.46 427.44,614.26 428.23,614.60 429.09,614.86 430.20,615.45"/>
    </edge>
    <edge id=":1234694675_1" function="internal">
        <lane id=":1234694675_1_0" index="0" allow="bicycle pedestrian" speed="2.78" length="4.06" width="2.00" shape="426.52,613.46 427.14,614.40 427.29,615.29 426.99,616.15 426.21,616.96"/>
    </edge>
    <edge id=":1235548240_0" function="internal">
        <lane id=":1235548240_0_0" index="0" disallow="tram rail_urban rail rail_electric ship" speed="13.89" length="0.25" shape="282.91,665.14 282.76,665.32"/>
        <lane id=":1235548240_0_1" index="1" disallow="tram rail_urban rail rail_electric ship" speed="13.89" length="0.25" shape="280.36,663.04 280.19,663.25"/>
    </edge>
    <edge id=":1235548240_2" function="internal">
        <lane id=":1235548240_2_0" index="0" disallow="tram rail_urban rail rail_electric ship" speed="13.89" length="2.41" shape="280.36,663.04 278.94,663.47 278.04,663.27"/>
    </edge>
    <edge id=":1235548240_6" function="internal">
        <lane id=":1235548240_6_0" index="0" speed="13.89" length="2.41" shape="278.04,663.27 277.66,662.43 277.81,660.95"/>
    </edge>
    <edge id=":1235548240_3" function="internal">
        <lane id=":1235548240_3_0" index="0" disallow="tram rail_urban rail rail_electric ship" speed="13.89" length="0.33" shape="275.04,659.12 275.26,658.85"/>
        <lane id=":1235548240_3_1" index="1" disallow="tram rail_urban rail rail_electric ship" speed="13.89" length="0.33" shape="277.62,661.19 277.81,660.95"/>
    </edge>
    <edge id=":1235548240_5" function="internal">
        <lane id=":1235548240_5_0" index="0" disallow="tram rail_urban rail rail_electric ship" speed="13.89" length="2.41" shape="277.62,661.19 279.03,660.74 279.94,660.94"/>
    </edge>
    <edge id=":1235548240_7" function="internal">
        <lane id=":1235548240_7_0" index="0" speed="13.89" length="2.41" shape="279.94,660.94 280.32,661.77 280.19,663.25"/>
    </edge>
    <edge id=":134618933_0" function="internal">
        <lane id=":134618933_0_0" index="0" disallow="tram rail_urban rail rail_electric ship" speed="8.33" length="4.82" shape="168.49,270.95 168.11,269.52 168.34,268.62 169.20,268.28 170.67,268.48"/>
    </edge>
    <edge id=":139655975_0" function="internal">
        <lane id=":139655975_0_0" index="0" disallow="tram rail_urban rail rail_electric ship" speed="13.89" length="5.09" shape="555.34,579.01 554.13,578.29 553.00,578.16 551.96,578.61 551.00,579.64"/>
    </edge>
    <edge id=":139655975_1" function="internal">
        <lane id=":139655975_1_0" index="0" disallow="tram rail_urban rail rail_electric ship" speed="13.89" length="6.19" shape="555.34,579.01 550.54,575.10"/>
    </edge>
    <edge id=":139655975_2" function="internal">
        <lane id=":139655975_2_0" index="0" disallow="tram rail_urban rail rail_electric ship" speed="13.89" length="2.41" shape="555.34,579.01 554.90,577.59 555.09,576.69"/>
    </edge>
    <edge id=":139655975_6" function="internal">
        <lane id=":139655975_6_0" index="0" speed="13.89" length="2.41" shape="555.09,576.69 555.93,576.31 557.41,576.44"/>
    </edge>
    <edge id=":139655975_3" function="internal">
        <lane id=":139655975_3_0" index="0" disallow="tram rail_urban rail rail_electric ship" speed="13.89" length="6.16" shape="552.64,572.55 557.41,576.44"/>
    </edge>
    <edge id=":139655975_4" function="internal">
        <lane id=":139655975_4_0" index="0" disallow="tram rail_urban rail rail_electric ship" speed="13.89" length="2.82" shape="552.64,572.55 553.31,573.63 553.26,575.18"/>
    </edge>
    <edge id=":139655975_5" function="internal">
        <lane id=":139655975_5_0" index="0" disallow="tram rail_urban rail rail_electric ship" speed="13.89" length="2.41" shape="552.64,572.55 553.07,573.97 552.86,574.87"/>
    </edge>
    <edge id=":139655975_7" function="internal">
        <lane id=":139655975_7_0" index="0" speed="13.89" length="5.03" shape="553.26,575.18 552.49,577.18 551.00,579.64"/>
    </edge>
    <edge id=":139655975_8" function="internal">
        <lane id=":139655975_8_0" index="0" speed="13.89" length="2.41" shape="552.86,574.87 552.02,575.25 550.54,575.10"/>
    </edge>
    <edge id=":139655987_0" function="internal">
        <lane id=":139655987_0_0" index="0" disallow="tram rail_urban rail rail_electric ship" speed="13.89" length="0.22" shape="489.87,523.63 489.70,523.48"/>
    </edge>
    <edge id=":139655987_1" function="internal">
        <lane id=":139655987_1_0" index="0" disallow="tram rail_urban rail rail_electric ship" speed="13.89" length="2.41" shape="489.87,523.63 489.48,522.19 489.70,521.30"/>
    </edge>
    <edge id=":139655987_4" function="internal">
        <lane id=":139655987_4_0" index="0" speed="13.89" length="2.41" shape="489.70,521.30 490.56,520.95 492.03,521.13"/>
    </edge>
    <edge id=":139655987_2" function="internal">
        <lane id=":139655987_2_0" index="0" disallow="tram rail_urban rail rail_electric ship" speed="13.89" length="0.31" shape="491.80,520.93 492.03,521.13"/>
    </edge>
    <edge id=":139655987_3" function="internal">
        <lane id=":139655987_3_0" index="0" disallow="tram rail_urban rail rail_electric ship" speed="13.89" length="2.41" shape="491.80,520.93 492.23,522.36 492.02,523.25"/>
    </edge>
    <edge id=":139655987_5" function="internal">
        <lane id=":139655987_5_0" index="0" speed="13.89" length="2.41" shape="492.02,523.25 491.18,523.63 489.70,523.48"/>
    </edge>
    <edge id=":139655995_0" function="internal">
        <lane id=":139655995_0_0" index="0" disallow="tram rail_urban rail rail_electric ship" speed="13.89" length="0.31" shape="525.33,554.31 525.09,554.11"/>
    </edge>
    <edge id=":139655995_1" function="internal">
        <lane id=":139655995_1_0" index="0" disallow="tram rail_urban rail rail_electric ship" speed="13.89" length="2.41" shape="525.33,554.31 524.90,552.89 525.11,551.99"/>
    </edge>
    <edge id=":139655995_4" function="internal">
        <lane id=":139655995_4_0" index="0" speed="13.89" length="2.41" shape="525.11,551.99 525.95,551.61 527.43,551.76"/>
    </edge>
    <edge id=":139655995_2" function="internal">
        <lane id=":139655995_2_0" index="0" disallow="tram rail_urban rail rail_electric ship" speed="13.89" length="0.23" shape="527.25,551.61 527.43,551.76"/>
    </edge>
    <edge id=":139655995_3" function="internal">
        <lane id=":139655995_3_0" index="0" disallow="tram rail_urban rail rail_electric ship" speed="13.89" length="2.41" shape="527.25,551.61 527.65,553.05 527.42,553.94"/>
    </edge>
    <edge id=":139655995_5" function="internal">
        <lane id=":139655995_5_0" index="0" speed="13.89" length="2.41" shape="527.42,553.94 526.57,554.30 525.09,554.11"/>
    </edge>
    <edge id=":165010519_0" function="internal">
        <lane id=":165010519_0_0" index="0" allow="rail rail_electric" speed="83.33" length="4.82" shape="584.34,407.80 585.69,407.17 586.61,407.24 587.10,408.02 587.17,409.51"/>
    </edge>
    <edge id=":1833847310_0" function="internal">
        <lane id=":1833847310_0_0" index="0" disallow="tram rail_urban rail rail_electric ship" speed="13.89" length="5.06" shape="395.33,463.58 392.14,467.51"/>
    </edge>
    <edge id=":1833847311_0" function="internal">
        <lane id=":1833847311_0_0" index="0" disallow="tram rail_urban rail rail_electric ship" speed="13.89" length="5.11" shape="426.20,487.51 423.01,491.53"/>
        <lane id=":1833847311_0_1" index="1" disallow="tram rail_urban rail rail_electric ship" speed="13.89" length="5.11" shape="423.61,485.48 420.44,489.46"/>
    </edge>
    <edge id=":1833847311_2" function="internal">
        <lane id=":1833847311_2_0" index="0" disallow="tram rail_urban rail rail_electric ship" speed="13.89" length="2.41" shape="423.61,485.48 422.19,485.94 421.29,485.75"/>
    </edge>
    <edge id=":1833847311_6" function="internal">
        <lane id=":1833847311_6_0" index="0" speed="13.89" length="2.41" shape="421.29,485.75 420.89,484.92 421.01,483.44"/>
    </edge>
    <edge id=":1833847311_3" function="internal">
        <lane id=":1833847311_3_0" index="0" disallow="tram rail_urban rail rail_electric ship" speed="13.89" length="5.04" shape="415.29,485.33 418.42,481.40"/>
        <lane id=":1833847311_3_1" index="1" disallow="tram rail_urban rail rail_electric ship" speed="13.89" length="5.04" shape="417.87,487.39 421.01,483.44"/>
    </edge>
    <edge id=":1833847311_5" function="internal">
        <lane id=":1833847311_5_0" index="0" disallow="tram rail_urban rail rail_electric ship" speed="13.89" length="2.41" shape="417.87,487.39 419.28,486.95 420.19,487.14"/>
    </edge>
    <edge id=":1833847311_7" function="internal">
        <lane id=":1833847311_7_0" index="0" speed="13.89" length="2.41" shape="420.19,487.14 420.57,487.98 420.44,489.46"/>
    </edge>
    <edge id=":1833847312_0" function="internal">
        <lane id=":1833847312_0_0" index="0" disallow="tram rail_urban rail rail_electric ship" speed="13.89" length="3.94" shape="373.28,506.69 372.36,505.97 371.73,505.47 371.13,504.94 370.30,504.12"/>
    </edge>
    <edge id=":1833847314_0" function="internal">
        <lane id=":1833847314_0_0" index="0" disallow="tram rail_urban rail rail_electric ship" speed="27.78" length="7.89" shape="421.56,476.47 419.61,475.09 418.28,474.13 417.00,473.11 415.18,471.56"/>
        <lane id=":1833847314_0_1" index="1" disallow="tram rail_urban rail rail_electric ship" speed="27.78" length="7.89" shape="423.47,473.78 421.60,472.46 420.32,471.54 419.09,470.56 417.35,469.07"/>
    </edge>
    <edge id=":1833847314_2" function="internal">
        <lane id=":1833847314_2_0" index="0" disallow="tram rail_urban rail rail_electric ship" speed="27.78" length="2.41" shape="423.47,473.78 422.95,472.39 423.09,471.48"/>
    </edge>
    <edge id=":1833847314_8" function="internal">
        <lane id=":1833847314_8_0" index="0" speed="27.78" length="2.41" shape="423.09,471.48 423.90,471.05 425.39,471.09"/>
    </edge>
    <edge id=":1833847314_3" function="internal">
        <lane id=":1833847314_3_0" index="0" disallow="tram rail_urban rail rail_electric ship" speed="27.78" length="7.25" shape="421.68,464.09 423.28,465.46 424.41,466.35 425.59,467.19 427.31,468.41"/>
        <lane id=":1833847314_3_1" index="1" disallow="tram rail_urban rail rail_electric ship" speed="27.78" length="7.25" shape="419.52,466.58 421.19,468.01 422.37,468.94 423.59,469.82 425.39,471.09"/>
    </edge>
    <edge id=":1833847314_5" function="internal">
        <lane id=":1833847314_5_0" index="0" disallow="tram rail_urban rail rail_electric ship" speed="27.78" length="2.41" shape="419.52,466.58 419.91,468.02 419.68,468.91"/>
    </edge>
    <edge id=":1833847314_9" function="internal">
        <lane id=":1833847314_9_0" index="0" speed="27.78" length="2.41" shape="419.68,468.91 418.82,469.26 417.35,469.07"/>
    </edge>
    <edge id=":1833847314_6" function="internal">
        <lane id=":1833847314_6_0" index="0" disallow="tram rail_urban rail rail_electric ship" speed="16.67" length="7.48" shape="420.19,477.03 419.88,476.28 418.95,475.11 417.38,473.54 415.18,471.56"/>
    </edge>
    <edge id=":1833847314_7" function="internal">
        <lane id=":1833847314_7_0" index="0" disallow="tram rail_urban rail rail_electric ship" speed="16.67" length="10.67" shape="420.19,477.03 420.56,473.07 421.54,470.76 423.15,470.10 425.39,471.09"/>
    </edge>
    <edge id=":2441273502_0" function="internal">
        <lane id=":2441273502_0_0" index="0" disallow="tram rail_urban rail rail_electric ship" speed="13.89" length="4.82" shape="726.50,700.50 727.07,701.88 726.95,702.79 726.15,703.25 724.66,703.24"/>
    </edge>
    <edge id=":26085299_0" function="internal">
        <lane id=":26085299_0_0" index="0" disallow="tram rail_urban rail rail_electric ship" speed="13.89" length="4.82" shape="581.68,288.65 583.10,288.22 584.00,288.42 584.38,289.26 584.24,290.74"/>
    </edge>
    <edge id=":26085300_0" function="internal">
        <lane id=":26085300_0_0" index="0" disallow="tram rail_urban rail rail_electric ship" speed="13.89" length="0.27" shape="541.09,348.97 540.92,349.17"/>
        <lane id=":26085300_0_1" index="1" disallow="tram rail_urban rail rail_electric ship" speed="13.89" length="0.27" shape="538.53,346.89 538.35,347.11"/>
    </edge>
    <edge id=":26085300_2" function="internal">
        <lane id=":26085300_2_0" index="0" disallow="tram rail_urban rail rail_electric ship" speed="13.89" length="2.41" shape="538.53,346.89 537.11,347.33 536.21,347.12"/>
    </edge>
    <edge id=":26085300_6" function="internal">
        <lane id=":26085300_6_0" index="0" speed="13.89" length="2.41" shape="536.21,347.12 535.83,346.28 535.97,344.80"/>
    </edge>
    <edge id=":26085300_3" function="internal">
        <lane id=":26085300_3_0" index="0" disallow="tram rail_urban rail rail_electric ship" speed="13.89" length="0.32" shape="533.20,342.98 533.41,342.72"/>
        <lane id=":26085300_3_1" index="1" disallow="tram rail_urban rail rail_electric ship" speed="13.89" length="0.32" shape="535.77,345.04 535.97,344.80"/>
    </edge>
    <edge id=":26085300_5" function="internal">
        <lane id=":26085300_5_0" index="0" disallow="tram rail_urban rail rail_electric ship" speed="13.89" length="2.41" shape="535.77,345.04 537.19,344.60 538.09,344.79"/>
    </edge>
    <edge id=":26085300_7" function="internal">
        <lane id=":26085300_7_0" index="0" speed="13.89" length="2.41" shape="538.09,344.79 538.48,345.63 538.35,347.11"/>
    </edge>
    <edge id=":26085301_0" function="internal">
        <lane id=":26085301_0_0" index="0" disallow="tram rail_urban rail rail_electric ship" speed="13.89" length="5.73" shape="477.73,425.81 474.09,430.14"/>
        <lane id=":26085301_0_1" index="1" disallow="tram rail_urban rail rail_electric ship" speed="13.89" length="5.73" shape="475.25,423.63 471.51,428.09"/>
    </edge>
    <edge id=":26085301_2" function="internal">
        <lane id=":26085301_2_0" index="0" disallow="tram rail_urban rail rail_electric ship" speed="13.89" length="3.97" shape="475.25,423.63 473.06,425.20 471.79,425.11"/>
    </edge>
    <edge id=":26085301_3" function="internal">
        <lane id=":26085301_3_0" index="0" disallow="tram rail_urban rail rail_electric ship" speed="13.89" length="2.41" shape="475.25,423.63 473.81,424.02 472.92,423.78"/>
    </edge>
    <edge id=":26085301_8" function="internal">
        <lane id=":26085301_8_0" index="0" speed="13.89" length="8.39" shape="471.79,425.11 470.79,425.04 468.45,423.14 466.01,419.50"/>
    </edge>
    <edge id=":26085301_9" function="internal">
        <lane id=":26085301_9_0" index="0" speed="13.89" length="2.41" shape="472.92,423.78 472.57,422.93 472.77,421.45"/>
    </edge>
    <edge id=":26085301_4" function="internal">
        <lane id=":26085301_4_0" index="0" disallow="tram rail_urban rail rail_electric ship" speed="13.89" length="4.74" shape="466.35,423.97 466.80,423.10 466.89,422.07 466.63,420.87 466.01,419.50"/>
    </edge>
    <edge id=":26085301_5" function="internal">
        <lane id=":26085301_5_0" index="0" disallow="tram rail_urban rail rail_electric ship" speed="13.89" length="6.05" shape="466.35,423.97 470.29,419.28"/>
        <lane id=":26085301_5_1" index="1" disallow="tram rail_urban rail rail_electric ship" speed="13.89" length="6.05" shape="468.93,426.03 472.77,421.45"/>
    </edge>
    <edge id=":26085301_7" function="internal">
        <lane id=":26085301_7_0" index="0" disallow="tram rail_urban rail rail_electric ship" speed="13.89" length="2.41" shape="468.93,426.03 470.35,425.57 471.25,425.77"/>
    </edge>
    <edge id=":26085301_10" function="internal">
        <lane id=":26085301_10_0" index="0" speed="13.89" length="2.41" shape="471.25,425.77 471.64,426.60 471.51,428.09"/>
    </edge>
    <edge id=":26085303_0" function="internal">
        <lane id=":26085303_0_0" index="0" disallow="tram rail_urban rail rail_electric ship" speed="13.89" length="5.09" shape="435.43,480.83 434.08,480.34 432.86,480.30 431.78,480.72 430.85,481.60"/>
    </edge>
    <edge id=":26085303_1" function="internal">
        <lane id=":26085303_1_0" index="0" disallow="tram rail_urban rail rail_electric ship" speed="20.83" length="13.70" shape="435.43,480.83 432.49,479.35 429.95,478.00 427.20,476.34 423.64,473.90"/>
    </edge>
    <edge id=":26085303_2" function="internal">
        <lane id=":26085303_2_0" index="0" disallow="tram rail_urban rail rail_electric ship" speed="13.89" length="4.28" shape="435.43,480.83 431.89,478.42"/>
    </edge>
    <edge id=":26085303_3" function="internal">
        <lane id=":26085303_3_0" index="0" disallow="tram rail_urban rail rail_electric ship" speed="13.89" length="2.18" shape="435.43,480.83 434.70,479.54 434.70,478.84"/>
    </edge>
    <edge id=":26085303_22" function="internal">
        <lane id=":26085303_22_0" index="0" speed="13.89" length="10.10" shape="431.89,478.42 430.22,475.70 430.41,472.69 432.45,469.38"/>
    </edge>
    <edge id=":26085303_23" function="internal">
        <lane id=":26085303_23_0" index="0" speed="13.89" length="2.64" shape="434.70,478.84 434.70,478.61 435.44,478.06 436.92,477.89"/>
    </edge>
    <edge id=":26085303_4" function="internal">
        <lane id=":26085303_4_0" index="0" disallow="tram rail_urban rail rail_electric ship" speed="13.89" length="4.99" shape="437.46,473.68 436.42,475.11 435.98,476.29 436.15,477.22 436.92,477.89"/>
    </edge>
    <edge id=":26085303_5" function="internal">
        <lane id=":26085303_5_0" index="0" disallow="tram rail_urban rail rail_electric ship" speed="13.89" length="10.39" shape="437.46,473.68 430.85,481.60"/>
        <lane id=":26085303_5_1" index="1" disallow="tram rail_urban rail rail_electric ship" speed="13.89" length="10.39" shape="434.95,471.53 428.25,479.56"/>
    </edge>
    <edge id=":26085303_7" function="internal">
        <lane id=":26085303_7_0" index="0" disallow="tram rail_urban rail rail_electric ship" speed="20.83" length="12.91" shape="434.95,471.53 432.16,474.10 429.34,475.36 426.50,475.29 423.64,473.90"/>
    </edge>
    <edge id=":26085303_8" function="internal">
        <lane id=":26085303_8_0" index="0" disallow="tram rail_urban rail rail_electric ship" speed="13.89" length="2.41" shape="434.95,471.53 433.52,471.93 432.63,471.70"/>
    </edge>
    <edge id=":26085303_24" function="internal">
        <lane id=":26085303_24_0" index="0" speed="13.89" length="2.41" shape="432.63,471.70 432.27,470.85 432.45,469.38"/>
    </edge>
    <edge id=":26085303_9" function="internal">
        <lane id=":26085303_9_0" index="0" disallow="tram rail_urban rail rail_electric ship" speed="20.83" length="3.02" shape="427.47,468.52 427.94,468.67 428.51,468.50 429.18,468.02 429.95,467.23"/>
    </edge>
    <edge id=":26085303_10" function="internal">
        <lane id=":26085303_10_0" index="0" disallow="tram rail_urban rail rail_electric ship" speed="20.83" length="13.40" shape="427.47,468.52 430.60,471.30 432.55,473.81 434.32,476.01 436.92,477.89"/>
    </edge>
    <edge id=":26085303_11" function="internal">
        <lane id=":26085303_11_0" index="0" disallow="tram rail_urban rail rail_electric ship" speed="20.83" length="3.67" shape="425.55,471.21 427.95,473.32 428.19,473.73"/>
    </edge>
    <edge id=":26085303_12" function="internal">
        <lane id=":26085303_12_0" index="0" disallow="tram rail_urban rail rail_electric ship" speed="27.78" length="2.15" shape="425.55,471.21 426.08,472.60 425.98,473.25"/>
    </edge>
    <edge id=":26085303_25" function="internal">
        <lane id=":26085303_25_0" index="0" speed="20.83" length="6.36" shape="428.19,473.73 429.20,475.41 429.30,477.49 428.25,479.56"/>
    </edge>
    <edge id=":26085303_26" function="internal">
        <lane id=":26085303_26_0" index="0" speed="27.78" length="2.67" shape="425.98,473.25 425.94,473.51 425.12,473.94 423.64,473.90"/>
    </edge>
    <edge id=":26085303_13" function="internal">
        <lane id=":26085303_13_0" index="0" disallow="tram rail_urban rail rail_electric ship" speed="16.67" length="3.50" shape="421.80,479.17 422.60,478.63 422.85,478.02 422.56,477.34 421.72,476.58"/>
    </edge>
    <edge id=":26085303_14" function="internal">
        <lane id=":26085303_14_0" index="0" disallow="tram rail_urban rail rail_electric ship" speed="9.72" length="14.68" shape="421.80,479.17 424.32,477.19 425.81,474.47 427.33,471.11 429.95,467.23"/>
    </edge>
    <edge id=":26085303_15" function="internal">
        <lane id=":26085303_15_0" index="0" disallow="tram rail_urban rail rail_electric ship" speed="9.72" length="15.68" shape="421.80,479.17 426.21,477.49 430.20,476.71 433.77,476.85 436.92,477.89"/>
    </edge>
    <edge id=":26085303_16" function="internal">
        <lane id=":26085303_16_0" index="0" disallow="tram rail_urban rail rail_electric ship" speed="9.72" length="10.67" shape="421.80,479.17 426.18,477.35 428.72,476.81 429.41,477.55 428.25,479.56"/>
    </edge>
    <edge id=":26085303_17" function="internal">
        <lane id=":26085303_17_0" index="0" disallow="tram rail_urban rail rail_electric ship" speed="20.83" length="2.11" shape="423.06,475.48 423.18,475.44 422.86,475.97 422.30,476.53 421.72,476.58"/>
    </edge>
    <edge id=":26085303_18" function="internal">
        <lane id=":26085303_18_0" index="0" disallow="tram rail_urban rail rail_electric ship" speed="13.89" length="10.68" shape="423.06,475.48 429.95,467.23"/>
        <lane id=":26085303_18_1" index="1" disallow="tram rail_urban rail rail_electric ship" speed="13.89" length="10.68" shape="425.66,477.52 432.45,469.38"/>
    </edge>
    <edge id=":26085303_20" function="internal">
        <lane id=":26085303_20_0" index="0" disallow="tram rail_urban rail rail_electric ship" speed="13.89" length="12.16" shape="425.66,477.52 427.49,476.11 429.98,475.70 433.12,476.29 436.92,477.89"/>
    </edge>
    <edge id=":26085303_21" function="internal">
        <lane id=":26085303_21_0" index="0" disallow="tram rail_urban rail rail_electric ship" speed="13.89" length="2.41" shape="425.66,477.52 427.07,477.06 427.97,477.25"/>
    </edge>
    <edge id=":26085303_27" function="internal">
        <lane id=":26085303_27_0" index="0" speed="13.89" length="2.41" shape="427.97,477.25 428.37,478.08 428.25,479.56"/>
    </edge>
    <edge id=":26085304_0" function="internal">